
  EPA STORM WATER MANAGEMENT MODEL - VERSION 5.1 (Build 5.2.0.dev1)
  --------------------------------------------------------------

  
  ERROR 195: reporting time step or duration is less than routing time step.

  Analysis begun on:  Fri May 25 13:24:30 2018
  Analysis ended on:  Fri May 25 13:24:30 2018
  Total elapsed time: < 1 sec