
  EPA STORM WATER MANAGEMENT MODEL - VERSION 5.1 (Build 5.2.0.dev1)
  --------------------------------------------------------------

  GDRSS SWMM Model 
  Last Updated by CDM Smith Inc 12/1/2012 
  
  WARNING 01: wet weather time step reduced to recording interval for Rain Gage CHS5
  WARNING 04: minimum elevation drop used for Conduit 16401
  WARNING 04: minimum elevation drop used for Conduit 16631
  WARNING 04: minimum elevation drop used for Conduit 1815
  WARNING 04: minimum elevation drop used for Conduit 21452
  WARNING 04: minimum elevation drop used for Conduit 21453
  WARNING 04: minimum elevation drop used for Conduit 26055
  WARNING 04: minimum elevation drop used for Conduit 3080
  WARNING 04: minimum elevation drop used for Conduit 33401
  WARNING 04: minimum elevation drop used for Conduit 35054
  WARNING 04: minimum elevation drop used for Conduit 35263
  WARNING 04: minimum elevation drop used for Conduit 3726
  WARNING 04: minimum elevation drop used for Conduit 39153
  WARNING 04: minimum elevation drop used for Conduit 3950
  WARNING 04: minimum elevation drop used for Conduit 4438
  WARNING 04: minimum elevation drop used for Conduit 4448
  WARNING 04: minimum elevation drop used for Conduit 45151
  WARNING 04: minimum elevation drop used for Conduit 46161
  WARNING 04: minimum elevation drop used for Conduit 600
  WARNING 04: minimum elevation drop used for Conduit 70311
  WARNING 04: minimum elevation drop used for Conduit 7760
  WARNING 04: minimum elevation drop used for Conduit 7902
  WARNING 02: maximum depth increased for Node PCI9NO8_UP
  WARNING 02: maximum depth increased for Node RC11000
  WARNING 02: maximum depth increased for Node RC11003
  WARNING 02: maximum depth increased for Node RC11031
  WARNING 02: maximum depth increased for Node RC11051
  WARNING 02: maximum depth increased for Node RC11075
  WARNING 02: maximum depth increased for Node RC1127
  WARNING 02: maximum depth increased for Node RC1127A
  WARNING 02: maximum depth increased for Node RC1132
  WARNING 02: maximum depth increased for Node RC1132A
  WARNING 02: maximum depth increased for Node RC1157
  WARNING 02: maximum depth increased for Node RC1157A
  WARNING 02: maximum depth increased for Node RC1172
  WARNING 02: maximum depth increased for Node RC21000
  WARNING 02: maximum depth increased for Node RC21003
  WARNING 02: maximum depth increased for Node RC21003A
  WARNING 02: maximum depth increased for Node RC21031
  WARNING 02: maximum depth increased for Node RC21031A
  WARNING 02: maximum depth increased for Node RC21035
  WARNING 02: maximum depth increased for Node RC21035A
  WARNING 02: maximum depth increased for Node RC21039
  WARNING 02: maximum depth increased for Node RC21039A
  WARNING 02: maximum depth increased for Node RC21051
  WARNING 02: maximum depth increased for Node RC21051A
  WARNING 02: maximum depth increased for Node RC21075
  WARNING 02: maximum depth increased for Node RC21075A
  WARNING 02: maximum depth increased for Node RC21081
  WARNING 02: maximum depth increased for Node RC21081A
  WARNING 02: maximum depth increased for Node RC21185
  WARNING 02: maximum depth increased for Node RC21185A
  WARNING 02: maximum depth increased for Node RC21187
  WARNING 02: maximum depth increased for Node RC21187A
  WARNING 02: maximum depth increased for Node RC21535A
  WARNING 02: maximum depth increased for Node RC28014A
  
  *************
  Element Count
  *************
  Number of rain gages ...... 54
  Number of subcatchments ... 402
  Number of nodes ........... 4170
  Number of links ........... 4549
  Number of pollutants ...... 0
  Number of land uses ....... 0
  
  
  ****************
  Raingage Summary
  ****************
                                                      Data       Recording
  Name                 Data Source                    Type       Interval 
  ------------------------------------------------------------------------
  CHS5                 25YR24HR_SCSTypeII             INTENSITY    5 min.
  CTS1                 25YR24HR_SCSTypeII             INTENSITY    5 min.
  CTS2                 25YR24HR_SCSTypeII             INTENSITY    5 min.
  CTS3                 25YR24HR_SCSTypeII             INTENSITY    5 min.
  CTS4                 25YR24HR_SCSTypeII             INTENSITY    5 min.
  CTUMA                25YR24HR_SCSTypeII             INTENSITY    5 min.
  FRS1                 25YR24HR_SCSTypeII             INTENSITY    5 min.
  HRS1                 25YR24HR_SCSTypeII             INTENSITY    5 min.
  HRS2                 25YR24HR_SCSTypeII             INTENSITY    5 min.
  MAS2                 25YR24HR_SCSTypeII             INTENSITY    5 min.
  PG01                 25YR24HR_SCSTypeII             INTENSITY    5 min.
  PG02                 25YR24HR_SCSTypeII             INTENSITY    5 min.
  PG027                25YR24HR_SCSTypeII             INTENSITY    5 min.
  PG028                25YR24HR_SCSTypeII             INTENSITY    5 min.
  PG03                 25YR24HR_SCSTypeII             INTENSITY    5 min.
  PG04                 25YR24HR_SCSTypeII             INTENSITY    5 min.
  PG05                 25YR24HR_SCSTypeII             INTENSITY    5 min.
  PG06                 25YR24HR_SCSTypeII             INTENSITY    5 min.
  PG07                 25YR24HR_SCSTypeII             INTENSITY    5 min.
  PG08                 25YR24HR_SCSTypeII             INTENSITY    5 min.
  PG09                 25YR24HR_SCSTypeII             INTENSITY    5 min.
  PG10                 25YR24HR_SCSTypeII             INTENSITY    5 min.
  PG11                 25YR24HR_SCSTypeII             INTENSITY    5 min.
  PG12                 25YR24HR_SCSTypeII             INTENSITY    5 min.
  PG13                 25YR24HR_SCSTypeII             INTENSITY    5 min.
  PG14                 25YR24HR_SCSTypeII             INTENSITY    5 min.
  PG15                 25YR24HR_SCSTypeII             INTENSITY    5 min.
  PG16                 25YR24HR_SCSTypeII             INTENSITY    5 min.
  PG17                 25YR24HR_SCSTypeII             INTENSITY    5 min.
  PG18                 25YR24HR_SCSTypeII             INTENSITY    5 min.
  PG19                 25YR24HR_SCSTypeII             INTENSITY    5 min.
  PG20                 25YR24HR_SCSTypeII             INTENSITY    5 min.
  PG21                 25YR24HR_SCSTypeII             INTENSITY    5 min.
  PG22                 25YR24HR_SCSTypeII             INTENSITY    5 min.
  PG23                 25YR24HR_SCSTypeII             INTENSITY    5 min.
  PG24                 25YR24HR_SCSTypeII             INTENSITY    5 min.
  PG25                 25YR24HR_SCSTypeII             INTENSITY    5 min.
  PG26                 25YR24HR_SCSTypeII             INTENSITY    5 min.
  PG29                 25YR24HR_SCSTypeII             INTENSITY    5 min.
  PG30                 25YR24HR_SCSTypeII             INTENSITY    5 min.
  PG31                 25YR24HR_SCSTypeII             INTENSITY    5 min.
  PG32                 25YR24HR_SCSTypeII             INTENSITY    5 min.
  PG33                 25YR24HR_SCSTypeII             INTENSITY    5 min.
  PG34                 25YR24HR_SCSTypeII             INTENSITY    5 min.
  STS1                 25YR24HR_SCSTypeII             INTENSITY    5 min.
  STS2                 25YR24HR_SCSTypeII             INTENSITY    5 min.
  STS3                 25YR24HR_SCSTypeII             INTENSITY    5 min.
  STS4                 25YR24HR_SCSTypeII             INTENSITY    5 min.
  STS5                 25YR24HR_SCSTypeII             INTENSITY    5 min.
  STS6                 25YR24HR_SCSTypeII             INTENSITY    5 min.
  SYS1                 25YR24HR_SCSTypeII             INTENSITY    5 min.
  SYS2                 25YR24HR_SCSTypeII             INTENSITY    5 min.
  SYS3                 25YR24HR_SCSTypeII             INTENSITY    5 min.
  UTS1                 25YR24HR_SCSTypeII             INTENSITY    5 min.
  
  
  ********************
  Subcatchment Summary
  ********************
  Name                       Area     Width   %Imperv    %Slope Rain Gage            Outlet              
  -----------------------------------------------------------------------------------------------------------
  S1000                    213.70  93088.00     72.80    1.0000 PG04                 RC11000             
  S1003                     61.00  26572.00     62.70    1.0000 PG04                 RC11003             
  S100715                  109.30  47611.00     47.10    1.0000 PG04                 RC600715            
  S100730                   84.70  36895.00     45.70    1.0000 PG04                 RC600730            
  S1011                     38.70  16836.00     70.20    1.0000 PG04                 RC11011             
  S101910                   54.80  23858.00     43.70    1.0000 PG11                 RC601910            
  S101919                  291.00 126760.00     60.10    1.0000 PG11                 RC601919            
  S101925                  235.00 102366.00     50.40    1.0000 PG11                 RC601925            
  S101945                  241.00 104980.00     54.50    1.0000 PG11                 RC601945            
  S102505                  114.00  49658.00     44.20    1.0000 PG11                 RC602505            
  S1031                    123.30  53709.00     51.00    1.0000 PG11                 RC11031             
  S103110                   75.00  32670.00     52.60    1.0000 PG11                 RC603110            
  S103115                  249.00 108464.00     50.30    1.0000 PG11                 RC603115            
  S103150                   96.00  41818.00     67.70    1.0000 PG11                 RC603150            
  S103155                   88.00  38333.00     40.40    1.0000 PG11                 RC603155            
  S103160                   67.00  29185.00     54.20    1.0000 PG11                 RC603160            
  S103175                   66.00  28750.00     60.60    1.0000 PG16                 RC603175            
  S103180                   41.00  17860.00     43.00    1.0000 PG16                 RC603180            
  S103185                  132.00  57499.00     51.10    1.0000 PG16                 RC603185            
  S1035                    703.70 306532.00     51.10    1.0000 PG16                 RC11035             
  S1039                    410.90 178988.00     40.70    1.0000 PG15                 RC11039             
  S1051                     41.50  18077.00     43.80    1.0000 PG16                 RC11051             
  S105115                   60.00  26136.00     76.20    1.0000 PG16                 RC605115            
  S105130                   47.00  20473.00     42.50    1.0000 PG16                 RC605130            
  S105140                  111.00  48352.00     64.20    1.0000 PG16                 RC605140            
  S105515                   74.00  32234.00     74.90    1.0000 PG16                 RC605515            
  S105530                  140.00  60984.00     43.70    1.0000 PG16                 RC605530            
  S105545                  143.00  62291.00     61.60    1.0000 PG16                 RC605545            
  S105905                   28.00  12197.00     75.30    1.0000 PG11                 RC605905            
  S1063                     25.00  10890.00     65.60    1.0000 PG16                 RC11063             
  S106705                   85.10  37057.00     59.90    1.0000 PG11                 RC606705            
  S106715                  100.00  43560.00     48.00    1.0000 PG16                 RC606715            
  S106730                   49.00  21344.00     68.70    1.0000 PG16                 RC606730            
  S106745                   54.00  23522.00     45.30    1.0000 PG16                 RC606745            
  S106750                   32.00  13939.00     59.00    1.0000 PG16                 RC606750            
  S106765                   33.00  14375.00     39.30    1.0000 PG16                 RC606765            
  S106770                   78.00  33977.00     65.20    1.0000 PG16                 RC606770            
  S106785                   63.00  27443.00     51.50    1.0000 PG16                 RC606785            
  S107110                   79.00  34412.00     60.90    1.0000 PG26                 RC607110            
  S107130                  164.00  71438.00     65.30    1.0000 PG16                 RC607130            
  S1075                    334.60 145752.00     65.90    1.0000 PG26                 RC11075             
  S107510                  204.00  88862.00     74.70    1.0000 PG26                 RC607510            
  S107530                  183.00  79715.00     59.50    1.0000 PG16                 RC607530            
  S1081                    264.20 115086.00     61.50    1.0000 PG02                 RC11081             
  S108110                  232.00 101059.00     65.90    1.0000 PG02                 RC608110            
  S108135                   91.00  39640.00     39.50    1.0000 PG02                 RC608135            
  S108520                  110.00  47916.00     73.00    1.0000 PG26                 RC608520            
  S108540                  164.00  71438.00     57.70    1.0000 PG26                 RC608540            
  S108920                  176.00  76666.00     72.10    1.0000 PG26                 RC608920            
  S108925                   66.00  28750.00     61.40    1.0000 PG26                 RC608925            
  S108945                   70.00  30492.00     48.60    1.0000 PG26                 RC608945            
  S1093                     41.30  17988.00     39.70    1.0000 PG26                 RC11093             
  S1125                     50.00  21780.00     45.00    1.0000 PG04                 RC1126              
  S1130                     57.00  24829.00     45.00    1.0000 PG04                 RC1131              
  S1155                    312.00 135907.00     45.00    1.0000 PG04                 RC1156              
  S1170                     85.00  37026.00     45.00    1.0000 PG04                 RC1171              
  S1185                   1186.00 516622.00     53.00    1.0000 PG15                 RC11185             
  S1187                    665.00 289674.00     41.70    1.0000 PG15                 RC11187             
  S1188                    729.00 317552.00     50.00    1.0000 PG15                 RC11188             
  S1215                    110.00  47916.00     37.00    1.0000 PG15                 RC11215             
  S1220                     62.00  27007.00     37.00    1.0000 PG15                 RC11220             
  S1225                     90.00  39204.00     37.00    1.0000 PG15                 RC11225             
  S1230                    365.00 158994.00     37.00    1.0000 PG24                 RC11230             
  S1310                    420.00 182952.00     41.00    1.0000 PG15                 RC11310             
  S1320                    318.00 138521.00     41.00    1.0000 PG15                 RC11320             
  S1335                    240.00 104544.00     41.00    1.0000 PG15                 RC11335             
  S1345                   1305.00 568458.00     41.00    1.0000 PG24                 RC11345             
  S1535                   1034.00 450410.00     35.00    1.0000 PG24                 RC11535             
  S1545                   1155.00 503118.00     40.00    1.0000 PG24                 RC11545             
  S1550                    291.00 126760.00     38.00    1.0000 PG18                 RC11550             
  S1570                   1077.00 469141.00     42.00    1.0000 PG18                 RC11570             
  S1571                   1797.00 782773.00     45.00    1.0000 PG03                 RC11571             
  S1601                     42.50  18522.00     81.00    1.0000 PG02                 RC31601             
  S160120                   11.50   4996.00     90.00    1.0000 PG26                 RC3160120           
  S160121                   76.70  33402.00     63.80    1.0000 PG26                 RC3160121           
  S160123                   46.80  20390.00     73.10    1.0000 PG02                 RC3160123           
  S160145                  176.80  77001.00     69.20    1.0000 PG02                 RC3160145           
  S160160                  254.20 110738.00     65.60    1.0000 PG02                 RC3160160           
  S160161                  127.40  55491.00     86.40    1.0000 PG02                 RC3160161           
  S160170                  103.20  44950.00     88.10    1.0000 PG02                 RC3160170           
  S160175                   64.10  27939.00     90.00    1.0000 PG02                 RC3160175           
  S160180                   32.00  13935.00     44.30    1.0000 PG02                 RC3160180           
  S1605                     20.30   8825.00     89.70    1.0000 PG26                 RC31605             
  S160500                   26.10  11382.00     90.00    1.0000 PG26                 RC3160500           
  S160520                   24.00  10441.00     90.00    1.0000 PG26                 RC3160520           
  S160530                   12.60   5506.00     90.00    1.0000 PG26                 RC3160530           
  S160540                   14.50   6329.00     90.00    1.0000 PG26                 RC3160540           
  S160555                   49.30  21471.00     89.30    1.0000 PG26                 RC3160555           
  S160570                   40.60  17672.00     90.00    1.0000 PG26                 RC3160570           
  S1609                     15.60   6787.00     56.30    1.0000 PG26                 RC31609             
  S160900                   25.00  10877.00     90.00    1.0000 PG26                 RC3160900           
  S160910                   27.30  11874.00     90.00    1.0000 PG26                 RC3160910           
  S1613                     13.80   6011.00     72.30    1.0000 PG26                 RC31613             
  S161300                   66.90  29150.00     81.70    1.0000 PG18                 RC3161300           
  S161330                   16.50   7205.00     90.00    1.0000 PG18                 RC3161330           
  S161360                  108.40  47206.00     88.20    1.0000 PG18                 RC3161360           
  S161370                   79.30  34547.00     77.20    1.0000 PG18                 RC3161370           
  S161380                  208.20  90683.00     62.30    1.0000 PG18                 RC3161380           
  S161385                   28.20  12275.00     50.20    1.0000 PG18                 RC3161385           
  S161420                   24.70  10777.00     89.00    1.0000 PG26                 RC3161420           
  S161430                   39.90  17372.00     90.00    1.0000 PG26                 RC3161430           
  S161460                   76.50  33302.00     81.50    1.0000 PG26                 RC3161460           
  S161710                   12.00   5227.00     66.00    1.0000 PG18                 RC3161710           
  S161716                    9.40   4073.00     90.00    1.0000 PG18                 RC3161716           
  S161722                   92.10  40101.00     67.80    1.0000 PG18                 RC3161722           
  S161726                   65.40  28471.00     89.60    1.0000 PG18                 RC3161726           
  S161781                  210.50  91706.00     70.10    1.0000 PG02                 RC3161781           
  S161785                  295.40 128686.00     72.00    1.0000 PG18                 RC3161785           
  S161791                  478.80 208544.00     56.70    1.0000 PG18                 RC3161791           
  S161796                  606.80 264331.00     50.30    1.0000 PG18                 RC3161796           
  S1621                     19.80   8632.00     88.90    1.0000 PG26                 RC31621             
  S16210                    37.20  16226.00     89.60    1.0000 PG26                 RC316210            
  S162110                   23.50  10228.00     90.00    1.0000 PG20                 RC3162110           
  S162120                   32.80  14270.00     90.00    1.0000 PG20                 RC3162120           
  S162135                    9.70   4221.00     90.00    1.0000 PG20                 RC3162135           
  S162144                   83.70  36460.00     74.80    1.0000 PG20                 RC3162144           
  S162155                   24.00  10467.00     31.10    1.0000 PG20                 RC3162155           
  S162165                   33.00  14362.00     51.20    1.0000 PG20                 RC3162165           
  S162180                   14.80   6451.00     90.00    1.0000 PG26                 RC3162180           
  S162195                   20.60   8952.00     68.10    1.0000 PG26                 RC3162195           
  S162205                   51.10  22250.00     76.40    1.0000 PG26                 RC3162205           
  S162210                   26.20  11417.00     90.00    1.0000 PG26                 RC3162210           
  S162230                   19.00   8255.00     90.00    1.0000 PG26                 RC3162230           
  S162265                    8.10   3528.00     90.00    1.0000 PG26                 RC3162265           
  S1627                     30.30  13187.00     88.00    1.0000 PG26                 RC31627             
  S162700                   22.20   9653.00     90.00    1.0000 PG20                 RC3162700           
  S162770                   42.40  18483.00     73.00    1.0000 PG20                 RC3162770           
  S1631                     29.60  12895.00     79.10    1.0000 PG26                 RC31631             
  S163100                   70.50  30710.00     67.80    1.0000 PG20                 RC3163100           
  S163126                   20.70   8999.00     84.60    1.0000 PG20                 RC3163126           
  S163140                   11.20   4887.00     16.80    1.0000 PG20                 RC3163140           
  S163186                   21.40   9304.00     47.90    1.0000 PG20                 RC3163186           
  S163200                   43.60  18975.00     48.30    1.0000 PG20                 RC3163200           
  S1635                     61.80  26919.00     61.00    1.0000 PG26                 RC31635             
  S163510                   18.70   8128.00     25.70    1.0000 PG20                 RC3163510           
  S163520                   18.20   7906.00     50.60    1.0000 PG20                 RC3163520           
  S163536                   35.20  15337.00     86.40    1.0000 PG20                 RC3163536           
  S163550                   46.30  20173.00     77.90    1.0000 PG20                 RC3163550           
  S1639                     67.70  29472.00     54.70    1.0000 PG20                 RC31639             
  S163910                   22.40   9775.00     60.40    1.0000 PG20                 RC3163910           
  S1643                     89.00  38768.00     66.20    1.0000 PG20                 RC31643             
  S164600                  239.80 104435.00     52.80    1.0000 PG20                 RC3164600           
  S164610                   98.40  42855.00     53.30    1.0000 PG20                 RC3164610           
  S164630                  151.90  66159.00     39.40    1.0000 PG20                 RC3164630           
  S164640                  119.10  51889.00     56.10    1.0000 PG20                 RC3164640           
  S164660                  103.00  44862.00     67.60    1.0000 PG20                 RC3164660           
  S164670                   91.00  39635.00     46.60    1.0000 PG20                 RC3164670           
  S164690                   66.20  28841.00     78.10    1.0000 PG18                 RC3164690           
  S1647                     62.30  27125.00     30.80    1.0000 PG20                 RC31647             
  S164700                   80.10  34909.00     90.00    1.0000 PG18                 RC3164700           
  S1651                    125.30  54583.00     43.40    1.0000 PG20                 RC31651             
  S1655                    119.80  52180.00     40.10    1.0000 PG20                 RC31655             
  S16550                   114.00  49642.00     70.40    1.0000 PG20                 RC316550            
  S165510                  150.20  65425.00     38.70    1.0000 PG20                 RC3165510           
  S165530                  504.40 219720.00     72.40    1.0000 PG19                 RC3165530           
  S165540                   86.70  37751.00     79.30    1.0000 PG19                 RC3165540           
  S165555                   62.30  27123.00     40.30    1.0000 PG20                 RC3165555           
  S165560                   55.60  24233.00     42.40    1.0000 PG20                 RC3165560           
  S165570                   23.30  10137.00     52.30    1.0000 PG20                 RC3165570           
  S165590                  112.40  48978.00     65.30    1.0000 PG20                 RC3165590           
  S165600                  247.50 107804.00     19.80    1.0000 PG20                 RC3165600           
  S165610                  263.50 114772.00     42.50    1.0000 PG20                 RC3165610           
  S165630                   72.40  31558.00     38.80    1.0000 PG20                 RC3165630           
  S165640                   36.10  15706.00     45.40    1.0000 PG20                 RC3165640           
  S1663                     14.40   6278.00     34.10    1.0000 PG20                 RC31663             
  S166300                   43.10  18755.00     52.90    1.0000 PG20                 RC3166300           
  S166310                   71.40  31114.00     44.20    1.0000 PG20                 RC3166310           
  S166330                   33.90  14765.00     43.40    1.0000 PG20                 RC3166330           
  S166350                   63.60  27714.00     51.30    1.0000 PG20                 RC3166350           
  S1671                     84.00  36590.00     65.20    1.0000 PG20                 RC11671             
  S167104                   73.00  31799.00     45.30    1.0000 PG31                 RC367104            
  S167114                   49.00  21344.00     40.70    1.0000 PG31                 RC367114            
  S167122                   87.00  37897.00     39.70    1.0000 PG31                 RC367122            
  S167130                   33.00  14375.00     48.00    1.0000 PG31                 RC367130            
  S167204                   81.00  35284.00     42.00    1.0000 PG31                 RC367204            
  S167210                   65.00  28314.00     36.50    1.0000 PG31                 RC367210            
  S167218                   77.00  33541.00     38.50    1.0000 PG31                 RC367218            
  S167228                   29.00  12632.00     40.90    1.0000 PG31                 RC367228            
  S167304                   61.00  26572.00     41.40    1.0000 PG31                 RC367304            
  S167312                   41.00  17860.00     36.10    1.0000 PG31                 RC367312            
  S167320                   97.00  42253.00     40.60    1.0000 PG31                 RC367320            
  S167328                   54.00  23522.00     42.50    1.0000 PG31                 RC367328            
  S167404                   68.00  29621.00     49.80    1.0000 PG31                 RC367404            
  S167412                   63.00  27443.00     56.50    1.0000 PG31                 RC367412            
  S167420                  145.00  63162.00     63.60    1.0000 PG31                 RC367420            
  S168104                  144.00  62726.00     39.80    1.0000 PG31                 RC368104            
  S168112                  153.00  66647.00     39.10    1.0000 PG31                 RC368112            
  S168122                  106.00  46174.00     39.40    1.0000 PG31                 RC368122            
  S168202                  106.00  46174.00     39.20    1.0000 PG31                 RC368202            
  S168208                  100.00  43560.00     39.30    1.0000 PG31                 RC368208            
  S168216                  106.00  46174.00     33.80    1.0000 PG31                 RC368216            
  S168224                   43.00  18731.00     39.60    1.0000 PG31                 RC368224            
  S168304                  121.00  52708.00     40.70    1.0000 PG31                 RC368304            
  S168310                  110.00  47916.00     39.90    1.0000 PG31                 RC368310            
  S168318                  169.00  73616.00     40.80    1.0000 PG31                 RC368318            
  S168326                   57.00  24829.00     45.60    1.0000 PG31                 RC368326            
  S16868                    41.50  18077.00     74.60    1.0000 PG31                 RC36868             
  S168702                  111.00  48352.00     36.10    1.0000 PG31                 RC368702            
  S168712                  191.00  83200.00     38.60    1.0000 PG31                 RC368712            
  S168722                   82.00  35719.00     44.20    1.0000 PG31                 RC368722            
  S169002                  106.00  46174.00     38.00    1.0000 PG22                 RC369002            
  S169010                  244.00 106286.00     40.40    1.0000 PG22                 RC369010            
  S169020                  100.00  43560.00     41.00    1.0000 PG22                 RC369020            
  S1731                    849.00 369824.00     54.50    1.0000 PG22                 RC11731             
  S177851                    7.82   3406.00     12.00    1.0000 PG04                 RC377851            
  S177852                   25.20  10977.00     38.00    1.0000 PG04                 RC377852            
  S177853                    8.30   3615.00     12.00    1.0000 PG04                 RC377853            
  S177854                   26.07  11356.00     45.50    1.0000 PG04                 RC377854            
  S177855                    9.99   4352.00     54.80    1.0000 PG04                 RC377855            
  S177856                   24.53  10685.00     38.00    1.0000 PG04                 RC377856            
  S177860                   13.31   5798.00     38.00    1.0000 PG04                 RC377860            
  S177861                   13.78   6003.00     38.00    1.0000 PG04                 RC377861            
  S177862                   12.12   5279.00     38.00    1.0000 PG04                 RC377862            
  S177870                   70.37  30653.00     31.70    1.0000 PG04                 RC377870            
  S177872                   56.49  24607.00     40.70    1.0000 PG04                 RC377872            
  S177874                  253.08 110242.00     33.30    1.0000 PG04                 RC377874            
  S177876                  145.16  63232.00     17.30    1.0000 PG04                 RC377876            
  S177878                   98.84  43055.00     36.90    1.0000 PG04                 RC377878            
  S1781                    382.00 166399.00     70.00    1.0000 PG15                 RC11781             
  S1782                   2640.001149984.00     43.00    1.0000 PG15                 RC11782             
  S1785                     56.70  24685.00     49.10    1.0000 PG04                 RC11785             
  S1795                   1562.00 680407.00     49.40    1.0000 PG04                 RC11795             
  S1952                   1428.00 622037.00     43.00    1.0000 PG24                 RC1951              
  S19520                   410.00 178596.00     43.00    1.0000 PG15                 RC19523             
  S1953                    263.00 114563.00     36.90    1.0000 PG15                 RC11953             
  S200515                   55.00  23958.00     72.80    1.0000 PG11                 RC700515            
  S200525                   75.00  32670.00     41.20    1.0000 PG11                 RC700525            
  S2030                    548.80 239057.00     55.70    1.0000 PG16                 RC12030             
  S2040                    281.50 122621.00     57.30    1.0000 PG16                 RC12040             
  S2056                    746.40 325132.00     42.70    1.0000 PG18                 RC12056             
  S2060                    118.80  51749.00     40.00    1.0000 PG18                 RC12060             
  S2115                     27.30  11879.00     90.00    1.0000 PG26                 RC32115             
  S2140                     82.60  35998.00     81.00    1.0000 PG26                 RC32140             
  S214500                  173.20  75446.00     75.00    1.0000 PG02                 RC3214500           
  S2160                    479.60 208909.00     41.10    1.0000 PG18                 RC32160             
  S2200                   1593.00 693911.00     37.00    1.0000 PG03                 RC12200             
  S2201                     47.00  20473.00     38.00    1.0000 PG03                 RC12201             
  S2315                   1074.00 467834.00     50.00    1.0000 PG08                 RC12315             
  S2345                    766.00 333670.00     41.00    1.0000 PG08                 RC12345             
  S2350                   1089.00 474368.00     35.00    1.0000 PG08                 RC12350             
  S2355                   1651.00 719176.00     35.00    1.0000 PG03                 RC12355             
  S2389                    800.00 348480.00     40.00    1.0000 PG17                 RC12389             
  S2397                    456.00 198634.00     40.00    1.0000 PG17                 RC12397             
  S2505                    965.00 420354.00     55.00    1.0000 PG19                 RC12505             
  S2520                    716.00 311890.00     44.00    1.0000 PG03                 RC12520             
  S2521                     62.00  27007.00     39.00    1.0000 PG03                 RC12521             
  S2560                    690.00 300564.00     62.00    1.0000 PG19                 RC12560             
  S2575                    989.00 430808.00     52.00    1.0000 PG19                 RC12575             
  S2576                     95.00  41382.00     60.00    1.0000 PG19                 RC12576             
  S2605                    169.00  73616.00     44.00    1.0000 PG19                 RC12605             
  S2730                    158.80  69186.00     43.20    1.0000 PG20                 RC32730             
  S2735                     35.00  15246.00     49.80    1.0000 PG19                 RC12735             
  S2736                     22.00   9583.00     76.60    1.0000 PG19                 RC12736             
  S2740                    821.00 357628.00     44.10    1.0000 PG19                 RC12740             
  S2765                    432.00 188179.00     46.00    1.0000 PG08                 RC12765             
  S2770                     97.00  42253.00     40.00    1.0000 PG08                 RC12770             
  S2805                     20.00   8712.00     78.60    1.0000 PG20                 RC12805             
  S2810                     59.00  25700.00     77.20    1.0000 PG20                 RC12810             
  S2812                     40.00  17424.00     77.70    1.0000 PG20                 RC12812             
  S2817                     35.00  15246.00     69.60    1.0000 PG20                 RC12817             
  S2836                   1202.00 523591.00     45.30    1.0000 PG20                 RC12836             
  S2912                    166.00  72310.00     42.00    1.0000 PG23                 RC12912             
  S2915                    184.00  80150.00     40.00    1.0000 PG22                 RC12915             
  S2920                    239.00 104108.00     18.00    1.0000 PG22                 RC12920             
  S2930                    465.00 202554.00     42.00    1.0000 PG22                 RC12930             
  S2935                   1146.00 499198.00     40.00    1.0000 PG14                 RC12935             
  S2960                    186.00  81022.00     39.00    1.0000 PG14                 RC12960             
  S2965                    489.00 213008.00     41.00    1.0000 PG14                 RC12965             
  S2980                    319.00 138956.00     14.00    1.0000 PG14                 RC12980             
  S3411                   2364.001029758.00     44.00    1.0000 PG10                 RC13411             
  S3416                   3779.001646132.00     33.00    1.0000 PG34                 RC13416             
  S3454                    193.00  84071.00     32.00    1.0000 PG34                 RC13454             
  S3455                    434.00 189050.00     31.00    1.0000 PG34                 RC13455             
  S3456                     39.00  16988.00     30.00    1.0000 PG34                 RC13456             
  S3457                     10.00   4356.00     37.00    1.0000 PG34                 RC13457             
  S3465                    515.00 224334.00     34.00    1.0000 PG34                 RC13465             
  S3470                    507.00 220849.00     31.00    1.0000 PG30                 RC13470             
  S3474                    115.00  50094.00     31.00    1.0000 PG34                 RC13474             
  S3480                    642.00 279655.00     46.00    1.0000 PG30                 RC13480             
  S3500                    148.00  64469.00     49.00    1.0000 PG30                 RC13500             
  S3505                     64.00  27878.00     31.00    1.0000 PG30                 RC13505             
  S3511                    135.00  58806.00     34.00    1.0000 PG32                 RC13511             
  S3514                     60.00  26136.00     34.00    1.0000 PG32                 RC13514             
  S3515                    270.00 117612.00     34.00    1.0000 PG30                 RC13515             
  S3516                     68.00  29621.00     34.00    1.0000 PG32                 RC13516             
  S3520                     27.00  11761.00     35.00    1.0000 PG30                 RC13520             
  S3521                     46.00  20038.00     37.00    1.0000 PG32                 RC13521             
  S35215                   122.00  53143.00     34.00    1.0000 PG32                 RC135215            
  S3524                    189.00  82328.00     35.00    1.0000 PG30                 RC13524             
  S3525                    544.00 236966.00     29.00    1.0000 PG09                 RC13525             
  S3526                     32.00  13939.00     34.00    1.0000 PG32                 RC13526             
  S3529                     26.00  11326.00     33.00    1.0000 PG09                 RC13529             
  S3532                     35.00  15246.00     33.00    1.0000 PG32                 RC13532             
  S3533                    133.00  57935.00     33.00    1.0000 PG32                 RC13533             
  S3535                    681.00 296644.00     31.00    1.0000 PG09                 RC13535             
  S3537                     25.00  10890.00     34.00    1.0000 PG32                 RC13537             
  S3540                    452.00 196891.00     29.00    1.0000 PG09                 RC13540             
  S3541                     60.00  26136.00     34.00    1.0000 PG32                 RC13541             
  S3544                    164.00  71438.00     33.00    1.0000 PG32                 RC13544             
  S3546                     65.00  28314.00     33.00    1.0000 PG32                 RC13546             
  S3547                     79.00  34412.00     35.00    1.0000 PG32                 RC13547             
  S3548                     92.00  40075.00     40.00    1.0000 PG32                 RC13548             
  S3550                   1000.00 435600.00     32.00    1.0000 PG09                 RC13550             
  S3553                     49.00  21344.00     33.00    1.0000 PG32                 RC13553             
  S3565                    637.00 277477.00     33.00    1.0000 PG09                 RC13565             
  S3569                     31.00  13504.00     26.00    1.0000 PG32                 RC13569             
  S3570                    940.00 409464.00     30.00    1.0000 PG09                 RC13570             
  S3620                    124.00  54014.00     35.00    1.0000 PG30                 RC13620             
  S3625                    206.00  89734.00     47.00    1.0000 PG15                 RC13625             
  S3630                    341.00 148540.00     54.00    1.0000 PG30                 RC13630             
  S3635                    541.00 235660.00     42.00    1.0000 PG30                 RC13635             
  S3640                    808.00 351965.00     48.00    1.0000 PG12                 RC13640             
  S3645                    695.00 302742.00     46.00    1.0000 PG12                 RC13645             
  S3655                    414.00 180338.00     44.00    1.0000 PG12                 RC13655             
  S3660                    486.00 211702.00     36.00    1.0000 PG12                 RC13660             
  S3662                    393.00 171191.00     36.00    1.0000 PG12                 RC13662             
  S3665                    468.00 203861.00     43.00    1.0000 PG12                 RC13665             
  S3670                   2118.00 922601.00     36.00    1.0000 PG13                 RC13670             
  S3710                    560.00 243936.00     34.00    1.0000 PG34                 RC13710             
  S3720                    810.00 352836.00     36.00    1.0000 PG34                 RC13720             
  S3725                    275.00 119790.00     37.00    1.0000 PG30                 RC13725             
  S3730                    354.00 154202.00     43.00    1.0000 PG30                 RC13730             
  S3735                    448.00 195149.00     36.00    1.0000 PG30                 RC13735             
  S3740                    287.00 125017.00     36.00    1.0000 PG30                 RC13740             
  S3745                    196.00  85378.00     54.00    1.0000 PG12                 RC13745             
  S3750                    657.00 286189.00     36.00    1.0000 PG12                 RC13750             
  S3755                    595.00 259182.00     35.00    1.0000 PG12                 RC13755             
  S3760                    687.00 299257.00     37.00    1.0000 PG09                 RC13760             
  S3763                    482.00 209959.00     34.00    1.0000 PG09                 RC13763             
  S3764                    333.00 145055.00     37.00    1.0000 PG09                 RC13764             
  S3765                     71.00  30928.00     36.00    1.0000 PG09                 RC13765             
  S3770                    664.00 289238.00     34.00    1.0000 PG09                 RC13770             
  S3775                    409.00 178160.00     38.00    1.0000 PG09                 RC13775             
  S3780                    677.00 294901.00     35.00    1.0000 PG13                 RC13780             
  S3895                    219.00  95396.00     79.00    1.0000 PG30                 RC13895             
  S4046                     82.20  35806.00     13.00    1.0000 PG34                 RC14046             
  S4086                     41.00  17860.00     18.00    1.0000 PG34                 RC14086             
  S4104                     38.00  16553.00     20.00    1.0000 PG34                 RC14104             
  S4106                    115.00  50094.00     20.00    1.0000 PG34                 RC14106             
  S4131                    376.00 163786.00     15.00    1.0000 PG33                 RC14131             
  S4319                     78.70  34282.00     13.30    1.0000 PG34                 RC14319             
  S4327                    822.00 358063.00     32.00    1.0000 PG33                 RC14327             
  S4341                     86.00  37462.00     14.00    1.0000 PG33                 RC14341             
  S4352                      6.00   2614.00     20.00    1.0000 PG34                 RC14352             
  S4355                     23.00  10019.00     20.00    1.0000 PG34                 RC14355             
  S4360                    263.00 114563.00     10.00    1.0000 PG10                 RC14360             
  S4361                    263.00 114563.00     13.00    1.0000 PG10                 RC14361             
  S4363                     77.50  33759.00      7.60    1.0000 PG34                 RC14363             
  S4366                    385.00 167706.00     20.00    1.0000 PG34                 RC14366             
  S4371                    272.00 118483.00     22.00    1.0000 PG33                 RC14371             
  S4374                     65.00  28314.00     17.00    1.0000 PG34                 RC14374             
  S4411                     28.00  12197.00     10.00    1.0000 PG33                 RC14411             
  S4421                     61.00  26572.00     13.00    1.0000 PG33                 RC14421             
  S4431                     68.00  29621.00     12.00    1.0000 PG33                 RC14431             
  S4437                     27.00  11761.00     19.00    1.0000 PG33                 RC14437             
  S4506                    142.40  62029.00     28.00    1.0000 PG34                 RC14506             
  S4508                    104.90  45694.00     14.00    1.0000 PG34                 RC14508             
  S4511                     84.50  36808.00     29.00    1.0000 PG34                 RC14511             
  S4513                     70.90  30884.00      8.60    1.0000 PG34                 RC14513             
  S4521                    103.00  44867.00     22.00    1.0000 PG34                 RC14521             
  S4526                     30.80  13416.00     30.00    1.0000 PG34                 RC14526             
  S4531                    173.90  75751.00     11.40    1.0000 PG34                 RC14531             
  S4541                     33.40  14549.00     14.20    1.0000 PG34                 RC14541             
  S5030                    437.00 190357.00     67.30    1.0000 PG23                 RC15030             
  S5040                    717.00 312325.00     34.40    1.0000 PG31                 RC15040             
  S5105                    282.00 122839.00     38.20    1.0000 PG23                 RC15105             
  S5108                    119.00  51836.00     40.00    1.0000 PG23                 RC15108             
  S5110                    261.00 113692.00     38.00    1.0000 PG23                 RC15110             
  S5115                    463.00 201683.00     36.00    1.0000 PG23                 RC15115             
  S5250                    453.00 197327.00     41.00    1.0000 PG22                 RC15250             
  S5255                   1599.00 696524.00     40.00    1.0000 PG14                 RC15255             
  S5415                     58.00  25265.00     41.00    1.0000 PG25                 RC15415             
  S5420                    294.00 128066.00     39.00    1.0000 PG25                 RC15420             
  S5510                    778.00 338897.00     40.00    1.0000 PG22                 RC15510             
  S5530                    820.00 357192.00     40.00    1.0000 PG14                 RC15530             
  S5555                    273.00 118919.00     40.00    1.0000 PG14                 RC15555             
  S5615                    730.00 317988.00     40.00    1.0000 PG25                 RC15615             
  S5710                    537.00 233917.00     41.00    1.0000 PG25                 RC15710             
  S5729                   2027.00 882961.00     39.00    1.0000 PG25                 RC15729             
  S5731                    195.00  84942.00     32.00    1.0000 PG25                 RC15731             
  S5802                    314.00 136778.00     40.00    1.0000 PG23                 RC15802             
  S600                     250.00 108900.00     50.00    1.0000 PG21                 RC10600             
  S6156                    876.00 381586.00     15.00    1.0000 PG07                 RC16156             
  S6166                   2352.001024531.00     14.00    1.0000 PG07                 RC16166             
  S6167                   1270.00 553212.00     16.00    1.0000 PG07                 RC16167             
  S630                     396.00 172498.00     50.00    1.0000 PG21                 RC10630             
  S650                     813.00 354143.00     50.00    1.0000 PG21                 RC10650             
  S7001                    275.00 119790.00     33.00    1.0000 PG25                 RC17001             
  S7003                    756.00 329314.00     32.00    1.0000 PG25                 RC17003             
  S7004                    624.00 271814.00     33.00    1.0000 PG25                 RC17004             
  S7031                   3661.001594732.00     35.00    1.0000 PG25                 RC17031             
  S7041                   3583.001560755.00     36.00    1.0000 PG05                 RC17041             
  S7046                    899.00 391604.00     33.00    1.0000 PG05                 RC17046             
  S8012                   1148.00 500069.00     33.00    1.0000 PG17                 RC18012             
  S8014                    479.00 208652.00     33.00    1.0000 PG17                 RC18014             
  S82051                  9934.004327250.00     33.00    1.0000 PG17                 RC92051             
  S82052                  7634.003325370.00     33.00    1.0000 PG13                 RC92052             
  S82053                  6653.002898047.00     33.00    1.0000 PG028                RC92053             
  S9206                     93.00  40511.00     11.00    1.0000 PG33                 RC19206             
  S9236                     75.00  32670.00     13.00    1.0000 PG32                 RC19236             
  S9241                    417.00 181645.00     11.00    1.0000 PG32                 RC19241             
  S9341                     59.00  25700.00     24.00    1.0000 PG32                 RC19341             
  
  
  ************
  Node Summary
  ************
                                           Invert      Max.    Ponded    External
  Name                 Type                 Elev.     Depth      Area    Inflow  
  -------------------------------------------------------------------------------
  10                   JUNCTION            569.76     30.00       0.0
  1002                 JUNCTION            546.17     38.09       0.0
  10030                JUNCTION            560.56     22.90       0.0
  1006                 JUNCTION            546.66     45.40       0.0
  100710               JUNCTION            563.56     28.00       0.0
  100715               JUNCTION            564.00     25.76       0.0    Yes
  100725               JUNCTION            567.28     24.88       0.0
  100730               JUNCTION            568.33     24.93       0.0    Yes
  1010                 JUNCTION            547.02     44.54       0.0
  10111                JUNCTION            574.06     17.50       0.0
  1014                 JUNCTION            547.74     40.82       0.0
  1018                 JUNCTION            548.54     40.42       0.0
  101905               JUNCTION            572.75     18.31       0.0
  101910               JUNCTION            573.58     17.28       0.0    Yes
  101917               JUNCTION            571.01     19.15       0.0
  101920               JUNCTION            575.51     13.55       0.0
  101925               JUNCTION            577.17     10.59       0.0    Yes
  101926               JUNCTION            569.28     20.98       0.0
  101927               JUNCTION            568.36     19.90       0.0
  101930               JUNCTION            567.94     21.12       0.0
  101935               JUNCTION            569.32     21.64       0.0
  101940               JUNCTION            577.63     14.13       0.0
  101947               JUNCTION            571.13     18.13       0.0
  1022                 JUNCTION            548.75     39.71       0.0
  1024                 JUNCTION            549.26     36.80       0.0
  102505               JUNCTION            563.07     23.69       0.0    Yes
  102510               JUNCTION            564.10     25.76       0.0
  1028                 JUNCTION            549.71     38.05       0.0
  1030                 JUNCTION            550.01     36.85       0.0
  103105               JUNCTION            574.20     13.26       0.0
  103110               JUNCTION            576.66     10.60       0.0    Yes
  103112               JUNCTION            566.07     21.19       0.0
  103114               JUNCTION            568.36     20.80       0.0
  103115               JUNCTION            577.09     12.07       0.0    Yes
  103120               JUNCTION            559.46     29.20       0.0
  103122               JUNCTION            573.94     14.72       0.0
  103125               JUNCTION            563.82     22.94       0.0
  103130               JUNCTION            565.14     23.42       0.0
  103140               JUNCTION            565.20     23.36       0.0
  103145               JUNCTION            566.46     25.80       0.0
  103155               JUNCTION            576.65     12.01       0.0    Yes
  103160               JUNCTION            577.10     16.46       0.0    Yes
  103170               JUNCTION            573.91     12.85       0.0
  103175               JUNCTION            575.19     10.77       0.0    Yes
  103180               JUNCTION            576.84     21.22       0.0    Yes
  1034                 JUNCTION            550.30     35.16       0.0
  10351                JUNCTION            563.76     66.00       0.0
  103510               JUNCTION            561.88     25.88       0.0
  10352                JUNCTION            561.56     68.20       0.0
  1038                 JUNCTION            550.33     33.93       0.0
  103905               JUNCTION            572.14     16.32       0.0
  103910               JUNCTION            572.26     21.50       0.0
  103915               JUNCTION            573.08     16.78       0.0
  103920               JUNCTION            574.20     20.46       0.0
  1042                 JUNCTION            550.45     31.91       0.0
  10442                JUNCTION            567.96     36.80       0.0
  1046                 JUNCTION            550.51     30.95       0.0
  1048                 JUNCTION            568.06     36.70       0.0
  1050                 JUNCTION            550.70     29.26       0.0
  105105               JUNCTION            573.60     11.66       0.0
  105120               JUNCTION            574.74     14.22       0.0
  105125               JUNCTION            574.88     16.38       0.0
  105130               JUNCTION            576.04     19.52       0.0    Yes
  105135               JUNCTION            576.68     19.68       0.0
  1054                 JUNCTION            551.10     30.66       0.0
  105505               JUNCTION            573.16     12.30       0.0
  105510               JUNCTION            574.33     14.53       0.0
  105515               JUNCTION            575.27     11.59       0.0    Yes
  105520               JUNCTION            575.58     13.28       0.0
  105525               JUNCTION            577.50     16.86       0.0
  105535               JUNCTION            582.43     13.83       0.0
  105540               JUNCTION            582.46     13.80       0.0
  105542               JUNCTION            568.27     27.19       0.0
  105550               JUNCTION            585.15     14.11       0.0
  105555               JUNCTION            585.19     14.07       0.0
  105557               JUNCTION            571.63     27.53       0.0
  1058                 JUNCTION            551.81     27.55       0.0
  105905               JUNCTION            576.46     16.00       0.0    Yes
  10601                JUNCTION            572.56     32.20       0.0
  1062                 JUNCTION            552.05     29.71       0.0
  1066                 JUNCTION            552.36     34.70       0.0
  106705               JUNCTION            573.46     15.60       0.0    Yes
  106710               JUNCTION            573.76     21.00       0.0
  106715               JUNCTION            574.25     15.21       0.0    Yes
  10672                JUNCTION            569.83     34.93       0.0
  106720               JUNCTION            575.26     18.70       0.0
  106725               JUNCTION            576.09     18.57       0.0
  106730               JUNCTION            576.84     18.62       0.0    Yes
  106735               JUNCTION            578.71     20.55       0.0
  106740               JUNCTION            581.90     16.76       0.0
  106745               JUNCTION            581.93     16.73       0.0    Yes
  106747               JUNCTION            572.22     26.24       0.0
  106750               JUNCTION            575.68     17.98       0.0    Yes
  106755               JUNCTION            578.67     18.69       0.0
  106760               JUNCTION            580.03     18.33       0.0
  106765               JUNCTION            580.06     18.30       0.0    Yes
  106767               JUNCTION            570.19     28.17       0.0
  106775               JUNCTION            579.16     17.80       0.0
  106780               JUNCTION            581.34     15.92       0.0
  106785               JUNCTION            581.37     15.89       0.0    Yes
  106787               JUNCTION            569.49     28.07       0.0
  106790               JUNCTION            581.52     16.04       0.0
  106795               JUNCTION            584.38     16.08       0.0
  106800               JUNCTION            584.43     16.03       0.0
  106802               JUNCTION            573.96     26.50       0.0
  106805               JUNCTION            580.42     17.74       0.0
  106810               JUNCTION            584.71     18.95       0.0
  106815               JUNCTION            584.76     18.90       0.0
  106817               JUNCTION            575.45     28.21       0.0
  106820               JUNCTION            584.33     14.93       0.0
  106825               JUNCTION            588.39     14.87       0.0
  106830               JUNCTION            588.43     14.83       0.0
  106832               JUNCTION            576.45     26.81       0.0
  1070                 JUNCTION            552.74     38.12       0.0
  107105               JUNCTION            573.82     17.44       0.0
  107110               JUNCTION            576.14     19.02       0.0    Yes
  107115               JUNCTION            578.53     18.03       0.0
  107125               JUNCTION            580.95     20.11       0.0
  107135               JUNCTION            582.65     17.31       0.0
  107140               JUNCTION            584.30     14.86       0.0
  107145               JUNCTION            584.33     14.83       0.0
  107147               JUNCTION            574.51     24.65       0.0
  107150               JUNCTION            585.36     14.00       0.0
  107155               JUNCTION            589.63     16.63       0.0
  107160               JUNCTION            589.68     16.58       0.0
  107162               JUNCTION            578.45     27.81       0.0
  107163               JUNCTION            577.09     27.47       0.0
  1074                 JUNCTION            553.02     36.84       0.0
  107505               JUNCTION            572.56     20.40       0.0
  10751                JUNCTION            572.16     32.60       0.0
  107515               JUNCTION            578.97     21.79       0.0
  107520               JUNCTION            579.07     21.69       0.0
  107525               JUNCTION            580.50     21.76       0.0
  107535               JUNCTION            582.33     20.73       0.0
  107540               JUNCTION            585.18     20.48       0.0
  107545               JUNCTION            586.56     22.10       0.0
  107550               JUNCTION            586.98     23.08       0.0
  107560               JUNCTION            581.48     28.58       0.0
  107565               JUNCTION            578.21     26.55       0.0
  107575               JUNCTION            586.69     21.97       0.0
  107580               JUNCTION            586.76     21.90       0.0
  1078                 JUNCTION            553.35     37.31       0.0
  1080                 JUNCTION            553.70     31.66       0.0
  108105               JUNCTION            573.88     17.08       0.0
  10811                JUNCTION            577.28     27.48       0.0
  108115               JUNCTION            584.79     18.77       0.0
  10812                JUNCTION            573.61     31.15       0.0
  108120               JUNCTION            585.71     19.05       0.0
  108125               JUNCTION            587.07     16.59       0.0
  108130               JUNCTION            587.97     15.99       0.0
  108135               JUNCTION            587.70     16.26       0.0    Yes
  108140               JUNCTION            591.26     16.80       0.0
  108145               JUNCTION            593.34     16.12       0.0
  108152               JUNCTION            593.28     20.78       0.0
  1084                 JUNCTION            554.05     30.11       0.0
  108505               JUNCTION            576.21     28.05       0.0
  108510               JUNCTION            576.43     22.33       0.0
  108512               JUNCTION            581.11     17.65       0.0
  108515               JUNCTION            581.11     14.85       0.0
  108520               JUNCTION            582.83     15.63       0.0    Yes
  108525               JUNCTION            587.33     15.43       0.0
  108530               JUNCTION            588.13     15.83       0.0
  108535               JUNCTION            589.46     17.00       0.0
  1088                 JUNCTION            554.34     26.32       0.0
  108905               JUNCTION            573.26      8.00       0.0
  108910               JUNCTION            573.78     18.58       0.0
  108915               JUNCTION            575.78     18.38       0.0
  108930               JUNCTION            585.01     19.65       0.0
  108935               JUNCTION            585.38     20.78       0.0
  108940               JUNCTION            589.45     19.01       0.0
  108945               JUNCTION            592.07     15.89       0.0    Yes
  108950               JUNCTION            597.75     13.91       0.0
  108955               JUNCTION            595.78     21.28       0.0
  1092                 JUNCTION            554.83     25.23       0.0
  1096                 JUNCTION            554.97     25.19       0.0
  1100                 JUNCTION            557.52     26.74       0.0
  11501                JUNCTION            558.57     26.69       0.0
  11521                JUNCTION            559.76     25.50       0.0
  11523                JUNCTION            559.57     28.09       0.0
  11524                JUNCTION            557.66     29.30       0.0
  1155                 JUNCTION            558.92     22.94       0.0
  11601                JUNCTION            569.76     19.50       0.0
  1165                 JUNCTION            559.96     24.30       0.0
  1170                 JUNCTION            563.25     23.81       0.0
  1180                 JUNCTION            563.75     24.61       0.0
  1195                 JUNCTION            568.36     29.20       0.0
  1200                 JUNCTION            569.86     31.00       0.0    Yes
  1205                 JUNCTION            571.26     31.70       0.0
  1212                 JUNCTION            571.66     32.70       0.0
  12123                JUNCTION            571.61     33.15       0.0
  1215                 JUNCTION            572.46     35.30       0.0    Yes
  1220                 JUNCTION            573.66     37.40       0.0    Yes
  12201                JUNCTION            584.06     26.40       0.0
  1225                 JUNCTION            579.86     36.20       0.0    Yes
  1230                 JUNCTION            583.76     41.00       0.0    Yes
  12301                JUNCTION            599.06     26.50       0.0
  12304                JUNCTION            599.86     25.70       0.0
  1300                 JUNCTION            573.96     25.20       0.0
  1305                 JUNCTION            578.96     25.00       0.0
  1310                 JUNCTION            583.16     22.70       0.0    Yes
  1325                 JUNCTION            589.46     23.80       0.0
  1330                 JUNCTION            590.56     25.60       0.0
  1340                 JUNCTION            595.36     27.40       0.0
  1345                 JUNCTION            598.56     30.00       0.0    Yes
  1400                 JUNCTION            560.66     20.30       0.0
  1415                 JUNCTION            564.36     31.70       0.0
  1420                 JUNCTION            564.96     28.90       0.0
  1425                 JUNCTION            565.06     26.90       0.0
  1430                 JUNCTION            565.36     27.90       0.0
  14301                JUNCTION            565.23     29.53       0.0
  1435                 JUNCTION            565.56     29.20       0.0
  1440                 JUNCTION            565.76     29.10       0.0
  1445                 JUNCTION            566.16     28.90       0.0
  1503                 JUNCTION            581.56     29.10       0.0
  1504                 JUNCTION            581.66     29.00       0.0
  15043                JUNCTION            581.61     29.05       0.0
  1510                 JUNCTION            586.71     31.45       0.0
  1515                 JUNCTION            587.26     33.20       0.0    Yes
  1516                 JUNCTION            587.36     33.10       0.0
  15163                JUNCTION            587.31     33.15       0.0
  1520                 JUNCTION            588.76     36.00       0.0
  1525                 JUNCTION            589.96     39.90       0.0
  1530                 JUNCTION            590.56     40.90       0.0
  1540                 JUNCTION            591.96     42.10       0.0
  1545                 JUNCTION            594.36     42.90       0.0    Yes
  1546                 JUNCTION            598.46     39.30       0.0
  1555                 JUNCTION            598.96     36.20       0.0
  1560                 JUNCTION            600.06     36.30       0.0
  160100               JUNCTION            574.07     29.49       0.0
  160110               JUNCTION            575.06     21.40       0.0
  160122               JUNCTION            580.05     28.41       0.0
  160130               JUNCTION            583.18     25.12       0.0
  160140               JUNCTION            585.72     27.28       0.0
  160146               JUNCTION            589.06     33.76       0.0
  160147               JUNCTION            590.41     33.69       0.0
  160150               JUNCTION            591.77     33.59       0.0
  160171               JUNCTION            582.51     24.95       0.0
  160172               JUNCTION            588.45     22.01       0.0
  160173               JUNCTION            594.39     18.97       0.0
  1604                 JUNCTION            556.08     25.38       0.0
  160510               JUNCTION            572.14     17.62       0.0
  160550               JUNCTION            580.94     23.82       0.0
  160556               JUNCTION            590.31     19.45       0.0
  160557               JUNCTION            597.46     15.30       0.0
  160560               JUNCTION            604.62     11.14       0.0
  1608                 JUNCTION            556.56     32.00       0.0
  16090                JUNCTION            567.86     34.10       0.0
  1612                 JUNCTION            556.64     32.62       0.0
  161310               JUNCTION            578.00     19.21       0.0
  161320               JUNCTION            579.66     14.10       0.0
  161340               JUNCTION            583.72     32.04       0.0
  161350               JUNCTION            585.06     32.20       0.0
  161358               JUNCTION            590.55     37.84       0.0
  161359               JUNCTION            592.26     38.46       0.0
  161367               JUNCTION            595.66     37.60       0.0
  161368               JUNCTION            597.36     36.10       0.0
  161369               JUNCTION            598.96     34.70       0.0
  161371               JUNCTION            604.66     28.10       0.0
  161382               JUNCTION            605.48     26.86       0.0
  161384               JUNCTION            607.41     26.35       0.0
  161415               JUNCTION            585.56     17.10       0.0
  161425               JUNCTION            585.66     17.00       0.0
  161450               JUNCTION            595.21     20.55       0.0
  1616                 JUNCTION            556.75     34.31       0.0
  16170                JUNCTION            562.51     20.55       0.0
  161700               JUNCTION            558.45     41.31       0.0
  161715               JUNCTION            582.06     27.70       0.0
  16172                JUNCTION            569.56     35.20       0.0
  161720               JUNCTION            575.32     42.34       0.0
  161721               JUNCTION            581.90     33.56       0.0
  161725               JUNCTION            583.48     28.28       0.0
  16173                JUNCTION            569.56     35.20       0.0
  161730               JUNCTION            577.38     41.58       0.0
  161735               JUNCTION            584.96     34.30       0.0
  16174                JUNCTION            569.56     35.20       0.0
  161740               JUNCTION            587.59     32.17       0.0
  161745               JUNCTION            591.40     29.06       0.0
  161750               JUNCTION            595.35     26.21       0.0
  161755               JUNCTION            598.53     23.53       0.0
  161760               JUNCTION            601.08     21.38       0.0
  161768               JUNCTION            579.09     42.13       0.0
  161769               JUNCTION            580.79     42.70       0.0
  161770               JUNCTION            582.50     43.26       0.0
  161778               JUNCTION            584.55     43.34       0.0
  161779               JUNCTION            586.60     43.46       0.0
  161780               JUNCTION            588.66     43.60       0.0
  161788               JUNCTION            593.84     37.92       0.0
  161789               JUNCTION            595.18     36.58       0.0
  161790               JUNCTION            596.53     32.63       0.0
  161795               JUNCTION            591.44     40.12       0.0
  1620                 JUNCTION            556.88     34.58       0.0
  162100               JUNCTION            575.77     23.99       0.0
  162130               JUNCTION            584.51     19.25       0.0
  162140               JUNCTION            597.49     15.37       0.0
  162145               JUNCTION            587.80     25.06       0.0
  162150               JUNCTION            603.76     13.60       0.0
  162160               JUNCTION            606.41     13.35       0.0
  162170               JUNCTION            579.00     19.06       0.0
  162185               JUNCTION            579.36     35.40       0.0
  162190               JUNCTION            589.38     25.58       0.0
  162200               JUNCTION            602.99     16.27       0.0
  162220               JUNCTION            579.06     18.65       0.0
  162225               JUNCTION            560.65     41.53       0.0
  162240               JUNCTION            578.12     19.94       0.0
  162250               JUNCTION            580.66     23.10       0.0
  162260               JUNCTION            582.16     18.30       0.0
  162265               JUNCTION            564.31     38.15       0.0
  1624                 JUNCTION            556.98     25.78       0.0
  1626                 JUNCTION            558.29     24.47       0.0
  16271                JUNCTION            575.26     29.50       0.0
  162710               JUNCTION            584.06     16.65       0.0
  16272                JUNCTION            573.26     31.50       0.0
  162720               JUNCTION            585.26     15.00       0.0
  162730               JUNCTION            589.37     12.89       0.0
  162740               JUNCTION            591.70     28.16       0.0
  162750               JUNCTION            600.53     18.73       0.0
  162760               JUNCTION            604.13     16.33       0.0
  1630                 JUNCTION            558.51     25.25       0.0
  16310                JUNCTION            569.09     14.37       0.0
  163110               JUNCTION            582.85     15.61       0.0
  163111               JUNCTION            585.88     19.72       0.0
  163112               JUNCTION            588.91     23.83       0.0
  163120               JUNCTION            591.94     27.95       0.0
  163130               JUNCTION            609.72     12.34       0.0
  163150               JUNCTION            584.86     16.59       0.0
  163160               JUNCTION            588.22     22.37       0.0
  163180               JUNCTION            605.16     12.80       0.0
  163190               JUNCTION            608.95     12.61       0.0
  1634                 JUNCTION            558.84     22.92       0.0
  163500               JUNCTION            578.16     18.35       0.0
  163530               JUNCTION            605.08     13.98       0.0
  163540               JUNCTION            611.20     11.26       0.0
  1638                 JUNCTION            558.99     22.77       0.0
  163908               JUNCTION            574.82     18.84       0.0
  163909               JUNCTION            577.85     27.41       0.0
  163920               JUNCTION            583.89     35.37       0.0
  16393                JUNCTION            574.76     30.00       0.0
  163930               JUNCTION            584.23     33.13       0.0
  16394                JUNCTION            573.76     31.00       0.0
  163940               JUNCTION            585.06     35.00       0.0
  16395                JUNCTION            571.34     33.42       0.0
  163950               JUNCTION            605.63     13.33       0.0
  163960               JUNCTION            592.42     28.04       0.0
  163970               JUNCTION            605.46     13.90       0.0
  1642                 JUNCTION            559.30     24.46       0.0
  16441                JUNCTION            564.16     40.60       0.0
  16444                JUNCTION            564.56     38.70       0.0
  16447                JUNCTION            554.76     48.00       0.0
  164590               JUNCTION            574.32     19.71       0.0
  164593               JUNCTION            576.58     26.05       0.0
  164594               JUNCTION            578.84     32.38       0.0
  1646                 JUNCTION            560.50     23.76       0.0
  164601               JUNCTION            582.58     39.48       0.0
  164602               JUNCTION            584.07     40.23       0.0
  164603               JUNCTION            585.56     40.98       0.0
  164620               JUNCTION            590.28     36.98       0.0
  164680               JUNCTION            602.23     24.73       0.0
  16471                JUNCTION            575.76     29.00       0.0
  164710               JUNCTION            602.80     28.18       0.0
  16472                JUNCTION            574.80     29.96       0.0
  16475                JUNCTION            572.76     32.00       0.0
  1650                 JUNCTION            560.74     24.02       0.0
  16511                JUNCTION            574.96     29.80       0.0
  16512                JUNCTION            574.66     30.10       0.0
  16513                JUNCTION            574.33     29.93       0.0
  1654                 JUNCTION            561.10     23.66       0.0
  165500               JUNCTION            579.27     46.69       0.0
  165501               JUNCTION            574.91     47.05       0.0
  165502               JUNCTION            576.36     46.90       0.0
  165503               JUNCTION            577.82     46.84       0.0
  16551                JUNCTION            571.36     33.40       0.0
  165520               JUNCTION            583.95     44.81       0.0
  165531               JUNCTION            596.92     33.64       0.0
  165532               JUNCTION            598.85     30.91       0.0
  165533               JUNCTION            601.18     25.58       0.0
  165541               JUNCTION            603.66     25.20       0.0
  165550               JUNCTION            590.64     36.92       0.0
  165580               JUNCTION            588.28     40.28       0.0
  165601               JUNCTION            572.66     29.70       0.0
  165602               JUNCTION            575.16     33.00       0.0
  165603               JUNCTION            577.66     36.30       0.0
  165611               JUNCTION            582.05     39.01       0.0
  165612               JUNCTION            583.92     38.44       0.0
  165613               JUNCTION            585.79     37.87       0.0
  165615               JUNCTION            580.06     37.70       0.0
  165620               JUNCTION            587.66     37.30       0.0
  1658                 JUNCTION            561.34     25.42       0.0
  1662                 JUNCTION            561.88     26.88       0.0
  16630                JUNCTION            572.16     12.20       0.0
  16631                JUNCTION            572.16     27.60       0.0
  166312               JUNCTION            582.76     24.00       0.0
  166314               JUNCTION            586.36     28.70       0.0
  16632                JUNCTION            571.21     28.55       0.0
  166320               JUNCTION            590.06     29.73       0.0
  166340               JUNCTION            593.13     26.07       0.0
  166360               JUNCTION            574.07     11.00       0.0
  1666                 JUNCTION            563.09     31.67       0.0
  167100               JUNCTION            578.70     21.06       0.0
  167102               JUNCTION            580.10     18.66       0.0
  167106               JUNCTION            583.18     17.58       0.0
  167108               JUNCTION            584.86     17.90       0.0
  16711                JUNCTION            575.06     29.70       0.0
  167110               JUNCTION            585.46     18.30       0.0
  167112               JUNCTION            586.48     22.28       0.0
  167116               JUNCTION            589.54     22.22       0.0
  167118               JUNCTION            591.07     21.69       0.0
  167120               JUNCTION            592.97     21.79       0.0
  167124               JUNCTION            596.77     21.99       0.0
[...]
  6100                        6.53      6.53      7.34      7.23         6.44
  61001                       7.28      7.34      9.00      7.44         6.78
  6105                        4.24      4.24      5.45      0.01         0.01
  6110                        4.22      4.22      4.24      0.01         0.01
  6115                       11.19     45.33     11.19     46.07        11.19
  6120                       11.17     11.18     11.17     11.39        10.96
  6125                       11.09     11.09     11.18     10.65        10.61
  6130                       11.08     11.08     11.09     11.19        10.97
  6131                       10.86     10.86     10.87      0.01         0.01
  6132                       10.85     10.85     10.86     11.15         7.60
  6134                       10.85     10.86     10.85     13.52        10.84
  6135                       11.24     11.35     11.24     11.53        11.24
  6140                       11.33     11.33     11.35     11.47        11.31
  6145                       11.33     11.49     11.33     11.69        11.32
  6150                       11.49     11.53     11.49     10.34        10.12
  6155                       11.51     11.51     11.53      2.78         2.75
  6160                       11.43     11.43     11.49      0.01         0.01
  6165                        7.88      7.88     11.43      0.01         0.01
  6168                       12.82     12.82     47.96      7.02         7.01
  620                         3.00      3.00      3.02      0.01         0.07
  621                         3.06      3.06      3.23      0.11         0.23
  622                         3.02      3.02      3.06      0.65         0.62
  623                         3.27      3.27      3.32      0.59         0.50
  624                         3.01      3.01      3.27      0.01         0.04
  625                         3.12      3.12      3.20      0.13         0.07
  630                         2.97      2.97      3.00      0.01         0.01
  640                         2.99      3.00      3.10      0.56         0.26
  650                         3.03      3.03      3.26      0.01         0.01
  6501                        3.29      3.29      3.74      0.11         0.04
  660                         2.98      2.99      3.04      1.75         0.63
  6601                        3.13      3.13      3.77      0.01         0.01
  670                         2.95      2.95      3.00      0.25         0.06
  6701                        3.06      3.06      3.22      0.04         0.02
  680                         2.93      2.93      3.01      0.04         0.02
  690                         2.95      2.95      2.98      0.01         0.02
  6901                        2.97      2.97      3.12      0.02         0.02
  700                         2.72      2.73      2.89      0.38         0.26
  70031                       0.01      0.01     14.40      0.01         0.01
  7010                       12.06     12.10     12.68     13.47        11.64
  7015                       11.90     12.01     12.10     13.44        11.65
  7020                       11.96     12.02     12.01     13.44        11.77
  7025                       12.01     12.03     12.02     13.46        11.85
  7030                       11.85     12.04     12.03     13.41        11.84
  70311                       0.01      1.27      0.01      3.10         0.01
  7035                       12.02     12.09     12.04      0.76         0.05
  7040                        0.31      0.31     12.09      0.01         0.02
  70412                       0.66      0.66     18.13      0.01         0.01
  7043                        0.55      0.55     13.57      0.01         0.01
  7045                        0.45      0.60      0.55      4.65         0.14
  70462                       0.01      0.01     18.50      0.01         0.01
  705                         2.89      2.89      3.04      0.41         0.31
  7050                        0.01      0.01      1.98      0.01         0.01
  7060                        0.01      0.01      0.01      1.80         0.01
  710                         2.64      2.64      3.32      0.01         0.01
  715                         3.32      3.32      3.61      0.03         0.01
  720                         3.61      3.61      4.00      0.05         0.01
  725                         4.00      4.00      4.16      0.05         0.01
  730                         3.36      3.37      3.59      2.20         2.11
  740                         2.83      3.31      2.83      3.94         2.83
  745                         2.62      2.83      2.62      3.96         2.62
  750                         2.52      2.62      2.52      3.96         2.52
  75002                       0.01      0.01      0.01     11.06         0.01
  75022                       0.01      0.01      0.01      6.56         0.01
  7510                        0.01      0.01      0.01     11.35         0.01
  7519                        0.01     11.13      0.01     11.29         0.01
  7520                        0.01      0.01     11.13      0.01         0.01
  7530                        7.84      7.95      7.86      8.69         7.66
  7540                        0.01      0.01      7.95      0.01         0.01
  75451                       0.01      5.56      0.01      8.91         0.01
  75452                       2.11      2.11     10.00      0.01         0.01
  7550                        0.01      0.01      0.01      4.94         0.01
  7555                        0.01      0.01      0.01      5.19         0.01
  7565                        0.01      0.01      0.01      2.86         0.01
  760                         2.49      2.52      2.49      4.01         2.45
  765                         2.34      2.49      2.34      4.01         2.34
  770                         2.24      2.34      2.24      4.10         2.24
  7740                        0.01      0.01      0.01      1.01         0.01
  77402                       0.01      0.01      0.01     12.95         0.01
  7760                        0.01      0.01      0.01     45.88         0.01
  785                         2.17      2.24      2.17      4.05         2.17
  7902                        0.01      0.01      0.01     46.02         0.01
  7910                        0.01      0.01      0.01      4.09         0.01
  7924                        0.01      0.01      0.01      4.37         0.01
  795                         3.90      3.93      3.90      4.06         3.90
  7965                        0.01      0.01      0.01      0.06         0.01
  800                         1.91      2.04      1.91      4.10         1.91
  8005                        5.21      5.21      5.60      0.01         0.01
  8010                       13.71     15.98     13.71     18.38        10.79
  8013                       12.13     12.13     13.03      0.01         0.01
  8015                       11.48     11.48     12.13      0.01         0.01
  8017                        9.26      9.26     11.89      0.01         0.01
  8030                        6.77      6.77      9.26      0.01         0.01
  805                         1.82      1.91      1.82      4.19         1.82
  8060                        6.86      6.86      8.66      0.01         0.01
  8065                        0.01      0.01      4.47      0.01         0.01
  8075                        0.01      0.01      0.01      1.17         0.01
  8100                       14.32     14.34     14.32     15.80        13.89
  8103                       14.34     17.05     14.34     17.79        14.33
  8200                       12.22     15.12     12.22     15.62        12.22
  82056                      10.97     11.24     11.26     10.04         9.69
  82062                       0.01      2.08      0.01      0.01         0.01
  82063                      16.52     16.52     19.40      0.01         1.10
  9010                        0.01      0.01      0.01      3.96         0.01
  9019                        0.01     10.63      0.01      0.01         0.01
  9025                        5.62      5.62     10.63      0.03         0.07
  9035                        0.01      0.01      5.62      0.01         0.01
  9060                        0.01      0.01      0.01      8.67         0.01
  9205                        0.01      0.01      0.01     11.80         0.01
  9220                       46.77     46.77     46.94     18.33        18.33
  92201                       4.22     11.74      4.22     17.48         4.22
  9225                        3.95      4.42      3.95      6.46         3.93
  9230                        3.43      3.43      4.42      0.20         0.22
  9235                        1.75      1.75      3.43      0.01         0.01
  9237                        1.12      1.12      1.75      0.01         0.01
  93001                       0.01      0.01      0.58      0.01         0.01
  9310                        0.01      0.01      5.81      0.01         0.01
  9335                        0.01      0.01      0.01      3.83         0.01
  93351                      17.82     17.82     19.44      0.75         0.75
  9340                        0.01      0.46      0.01      1.61         0.01
  9355                        0.01      0.01      0.46      0.01         0.01
  DC45762                     0.01      0.01     20.91      0.01         0.01
  RC1131                      0.01      5.20      0.01      5.90         0.01
  RC1156                      0.01     22.42      0.01     22.27         0.01
  RC1171                      0.01      8.12      0.01      9.06         0.01
  RC14327                     0.01      0.29      0.01      0.53         0.01
  RC31601                     6.34      7.23      6.34      8.08         6.34
  RC46014                     0.01      0.01      1.91      0.01         0.01
  RC82051                     0.01      0.01      9.79      0.01         0.01
  RC82052                     0.01      0.01     10.44      0.01         0.01
  RC82053                     0.01      0.01     10.44      0.01         0.01
  RC92051                     0.01      0.39      0.01      0.14         0.01
  RC92052                     0.01      0.28      0.01      0.10         0.01
  RC92053                     0.01      0.20      0.01      0.08         0.01
  
  
  ***************
  Pumping Summary
  ***************
  
  ---------------------------------------------------------------------------------------------------------
                                                  Min       Avg       Max     Total     Power    % Time Off
                        Percent   Number of      Flow      Flow      Flow    Volume     Usage    Pump Curve
  Pump                 Utilized   Start-Ups       CFS       CFS       CFS  10^6 gal     Kw-hr    Low   High
  ---------------------------------------------------------------------------------------------------------
  CLINTONDALEPS           99.75           1      0.00     27.56     44.95    30.263   4617.06    0.0    0.0
  NEPS                    49.79        6372      0.00    397.48    423.00   254.022  72292.60    0.0    0.0
  PUMP10@7041-7040       100.00           1      0.00     10.46     12.54    11.751    212.11    0.0   63.5
  PUMP11@7031-7030       100.00           1      0.00      7.73      9.30     8.661    465.22    0.0   61.3
  PUMP12@1795-3405       100.00           1      0.00     10.36     10.36    13.391    402.95    0.0    0.7
  PUMP13@1700-1695        90.73           5      0.00    286.65    375.00   272.198  17632.19    0.0   30.3
  PUMP14@1000-1767        90.20           4      0.00    302.11    316.00   342.986  25409.87    0.0   83.1
  PUMP15@1000-1767        32.49           1      0.00    251.08    252.00   105.328   5407.92    0.0   81.9
  PUMP16@1000-1767        29.83           1      0.00    225.55    226.00    86.950   4290.38    0.0   89.2
  PUMP17@1000-1767        65.82           6      0.00    145.23    150.00   120.742   8231.06    0.0   77.9
  PUMP18@1000-1767         0.00           0      0.00      0.00      0.00     0.000      0.00    0.0    0.0
  PUMP19@1000-1767        83.22           1      0.00    212.01    221.00   222.139  16046.45    0.0   82.5
  PUMP1@3239-3238         27.26           1      0.00     31.40     31.50    11.069    737.15    0.0   27.0
  PUMP20@1000-1767        37.02           1      0.00    256.34    258.00   122.254   6644.27    0.0   71.9
  PUMP21@16003-20000      76.85           5      0.00    900.44   1207.00   702.807  49149.52    0.0   55.0
  PUMP22@1798-3405        68.74         151      0.00      5.11     11.40     3.980    151.91    0.0    0.0
  PUMP23@1683-1684        89.42           2      0.00     10.75     15.20     9.646    297.69    0.0   31.4
  PUMP24@1782-1790       100.00           1      0.00     36.60     50.00    36.071    818.23    0.0   56.7
  PUMP25@3411-3410        52.80           1      0.00      9.41     37.46     9.568    585.55    0.0   30.2
  PUMP26@3409-3410       100.00           1      0.00      9.36     18.00     7.855    151.65    0.0   66.3
  PUMP27@35395-3535       41.76           2      0.00     20.93     25.74    10.119    584.87    0.0   13.8
  PUMP28@35390-3535      100.00           1      0.00      3.20      3.54     3.782     42.22    0.0   57.3
  PUMP29@35445-3565       11.65         154      0.00     13.24     13.30     1.988     25.88    0.0    0.0
  PUMP2@3239-3238         27.24           1      0.00     31.40     31.50    11.058    736.93    0.0   26.9
  PUMP30@36014-3435        2.38         154      0.00     29.00     29.00     0.893     22.77    0.0    0.0
  PUMP31@2702-2711         0.00           0      0.00      0.00      0.00     0.000      0.00    0.0    0.0
  PUMP32@16447-1642        0.00           0      0.00      0.00      0.00     0.000      0.00    0.0    0.0
  PUMP33@5010-5005       100.00           1      0.00    171.92    225.00   177.324  11063.84    0.0   47.2
  PUMP34@5010-5009         9.03        1941      0.00   3120.91   3553.24   364.566  36689.02    0.0    0.0
  PUMP35@5010-5009         4.98           1      0.00      0.89      0.92     0.057      5.35    0.0    0.0
  PUMP36@5010-5009         4.29           1      0.00      0.89      0.92     0.050      4.53    0.0    0.0
  PUMP37@5010-5009         4.17           1      0.00      0.89      0.92     0.048      4.39    0.0    0.0
  PUMP38@2999-5007         0.00           0      0.00      0.00      0.00     0.000      0.00    0.0    0.0
  PUMP39@2999-5007         0.00           0      0.00      0.00      0.00     0.000      0.00    0.0    0.0
  PUMP3@3239-3238         25.73          15      0.00     31.40     31.50    10.443    717.94    0.0   22.7
  PUMP40@2999-5007         0.00           0      0.00      0.00      0.00     0.000      0.00    0.0    0.0
  PUMP41@2999-5007         0.00           0      0.00      0.00      0.00     0.000      0.00    0.0    0.0
  PUMP42@5220-5106        89.35           1      0.00     21.41     25.20    22.152   3194.24    0.0   30.2
  PUMP43@5220-5106        34.41           1      0.00     40.14     50.10    17.562   1452.53    0.0   11.4
  PUMP44@5220-5219        11.48        2518      0.00   3191.18   3500.00   475.264  56234.13    0.0   53.4
  PUMP45@5220-5218         6.53           1      0.00      0.91      0.95     0.076      6.44    0.0    0.0
  PUMP46@5220-5217         6.49           1      0.00      0.91      0.95     0.076      6.38    0.0    0.0
  PUMP47@5220-5216         6.42           1      0.00      0.91      0.95     0.075      6.30    0.0    0.0
  PUMP48@5729-5730        81.71           1      0.00    233.30    790.00   137.184   7928.59    0.0   11.3
  PUMP49@70333-7030        6.85         674      0.00     14.68     14.70     1.299     58.46    0.0    0.0
  PUMP4@3239-3238         23.39           8      0.00     31.39     31.50     9.491    678.45    0.0   15.4
  PUMP50@7011-7010        96.59           1      0.00      1.86      3.00     1.646    105.66    0.0    0.0
  PUMP51@7004-7000        38.63           1      0.00    113.48    508.25    44.249   1997.50    0.0    0.0
  PUMP52@7005-7000        89.90           1      0.00     44.64     63.50    44.710   2316.05    0.0    2.0
  PUMP53@7005-7000        28.22           1      0.00     54.63     63.50    19.900    935.67    0.0    6.1
  PUMP54@5879-5878        43.46           3      0.00     10.47     14.00     5.747    473.52    0.0    7.3
  PUMP55@5879-5878        12.06           1      0.00     91.00    178.00    13.533    699.79    0.0   38.0
  PUMP56@1759-1760        79.93           3      0.00     27.99     84.00    17.419    192.93    0.0   64.8
  PUMP57@3580-35703      100.00           1      0.00      2.88      3.85     2.985     30.88    0.0   69.0
  PUMP58@3580-35801       29.59           1      0.00      2.15      2.15     0.822      9.17    0.0    0.0
  PUMP59@7035-7030        24.70         113      0.00    101.23    102.00    32.356    705.78    0.0    0.0
  PUMP5@3239-3238         21.38          22      0.00     31.38     31.50     8.673    636.19    0.0   11.6
  PUMP60@7041-70411        7.08          18      0.00   1780.00   1780.00   162.928   8900.73    0.0  100.0
  PUMP62@357228-357727    25.40           1      0.00      3.40      3.40     1.116    202.08    0.0    0.0
  PUMP63@33434-33435      25.02           1      0.00      2.30      2.30     0.744    136.80    0.0    0.0
  PUMP64@35671-3565       32.51          21      0.00      5.83     65.00     2.166    515.88    0.0   90.1
  PUMP65@6095-6090        99.36           2      0.00     19.60     19.60    25.171   3341.32    0.0  100.0
  PUMP66@6095-6090        15.99           1      0.00     19.60     19.60     4.051    516.69    0.0  100.0
  PUMP67@6095-6090        68.63          73      0.00     25.43     26.69    22.436   2965.89    0.0    0.0
  PUMP68@6095-6093        20.30          20      0.00     25.10     35.70     6.478   1437.98    0.0    2.3
  PUMP69@6095-6093         7.59           1      0.00     15.63     30.33     1.567    415.64    0.0    0.0
  PUMP6@3239-3238         15.15          26      0.00     31.34     31.50     6.138    496.60    0.0    0.1
  PUMP70@6167-6165       100.00           1      0.00      3.70      5.00     3.719     66.98    0.0   66.4
  PUMP71@6166-6165       100.00           1      0.00      3.55      4.90     3.520     65.25    0.0   67.9
  PUMP72@6156-6155       100.00           1      0.00      2.23      3.00     2.258     10.09    0.0   65.6
  PUMP73@61672-6165        6.50        2757      0.00     16.00     16.00     1.345     14.70    0.0    0.0
  PUMP74@61662-6165        5.82        2816      0.00     16.00     16.00     1.203     13.52    0.0    0.0
  PUMP75@61562-6155        2.30         751      0.00     12.00     12.00     0.356      3.42    0.0    0.0
  PUMP76@6136-6135       100.00           1      0.00      2.68      2.98     3.235     47.04    0.0   65.3
  PUMP77@61361-6135        4.39        2254      0.00      5.41      5.41     0.307      7.88    0.0    0.0
  PUMP7@3239-3238         10.39          22      0.00     31.30     31.44     4.205    367.08    0.0    0.0
  PUMP80@82062-8010       21.38        5815      0.00     96.98    185.00    16.746    988.23    0.0    0.0
  PUMP81@11600-11601      41.72           1      0.00     11.83     12.30     6.227    426.10    0.0   56.5
  PUMP82@11600-11601       4.26          40      0.00    289.40    315.00    16.033    646.42    0.0   48.8
  PUMP83@11600-11601       2.41           1      0.00    311.96    315.00     9.724    218.89    0.0   86.4
  PUMP8@3239-3238          4.59          33      0.00     31.27     31.35     1.855    174.86    0.0    0.0
  PUMP9@7046-7045        100.00           1      0.00     16.54     19.74    18.710    112.31    0.0   69.9
  

  Analysis begun on:  Fri May 18 09:41:38 2018
  Analysis ended on:  Fri May 18 12:33:10 2018
  Total elapsed time: 02:51:32