
  EPA STORM WATER MANAGEMENT MODEL - VERSION 5.1 (Build 5.2.0.dev1)
  --------------------------------------------------------------

  GDRSS SWMM Model 
  Last Updated by CDM Smith Inc 12/1/2012 
  
  WARNING 04: minimum elevation drop used for Conduit 1
  WARNING 04: minimum elevation drop used for Conduit 16401
  WARNING 04: minimum elevation drop used for Conduit 16631
  WARNING 04: minimum elevation drop used for Conduit 1815
  WARNING 04: minimum elevation drop used for Conduit 26055
  WARNING 04: minimum elevation drop used for Conduit 600
  WARNING 04: minimum elevation drop used for Conduit 70311
  WARNING 04: minimum elevation drop used for Conduit ISD006_damDOWN
  WARNING 04: minimum elevation drop used for Conduit ISD006_underflow
  WARNING 02: maximum depth increased for Node PCI9NO8_UP
  WARNING 02: maximum depth increased for Node RC11000
  WARNING 02: maximum depth increased for Node RC11003
  WARNING 02: maximum depth increased for Node RC11031
  WARNING 02: maximum depth increased for Node RC11051
  WARNING 02: maximum depth increased for Node RC11075
  WARNING 02: maximum depth increased for Node RC1127
  WARNING 02: maximum depth increased for Node RC1127A
  WARNING 02: maximum depth increased for Node RC1132
  WARNING 02: maximum depth increased for Node RC1132A
  WARNING 02: maximum depth increased for Node RC1157
  WARNING 02: maximum depth increased for Node RC1157A
  WARNING 02: maximum depth increased for Node RC1172
  WARNING 02: maximum depth increased for Node RC21000
  WARNING 02: maximum depth increased for Node RC21003
  WARNING 02: maximum depth increased for Node RC21003A
  WARNING 02: maximum depth increased for Node RC21031
  WARNING 02: maximum depth increased for Node RC21031A
  WARNING 02: maximum depth increased for Node RC21035
  WARNING 02: maximum depth increased for Node RC21035A
  WARNING 02: maximum depth increased for Node RC21039
  WARNING 02: maximum depth increased for Node RC21039A
  WARNING 02: maximum depth increased for Node RC21051
  WARNING 02: maximum depth increased for Node RC21051A
  WARNING 02: maximum depth increased for Node RC21075
  WARNING 02: maximum depth increased for Node RC21075A
  WARNING 02: maximum depth increased for Node RC21081
  WARNING 02: maximum depth increased for Node RC21081A
  WARNING 02: maximum depth increased for Node RC21185
  WARNING 02: maximum depth increased for Node RC21185A
  WARNING 02: maximum depth increased for Node RC21187
  WARNING 02: maximum depth increased for Node RC21187A
  WARNING 02: maximum depth increased for Node RC21535A
  WARNING 02: maximum depth increased for Node RC28014A
  
  *************
  Element Count
  *************
  Number of rain gages ...... 54
  Number of subcatchments ... 304
  Number of nodes ........... 2660
  Number of links ........... 2914
  Number of pollutants ...... 0
  Number of land uses ....... 0
  
  
  ****************
  Raingage Summary
  ****************
                                                      Data       Recording
  Name                 Data Source                    Type       Interval 
  ------------------------------------------------------------------------
  CHS5                 half_inch                      CUMULATIVE  15 min.
  CTS1                 half_inch                      CUMULATIVE  15 min.
  CTS2                 half_inch                      CUMULATIVE  15 min.
  CTS3                 half_inch                      CUMULATIVE  15 min.
  CTS4                 half_inch                      CUMULATIVE  15 min.
  CTUMA                half_inch                      CUMULATIVE  15 min.
  FRS1                 half_inch                      CUMULATIVE  15 min.
  HRS1                 half_inch                      CUMULATIVE  15 min.
  HRS2                 half_inch                      CUMULATIVE  15 min.
  MAS2                 half_inch                      CUMULATIVE  15 min.
  PG01                 half_inch                      CUMULATIVE  15 min.
  PG02                 half_inch                      CUMULATIVE  15 min.
  PG027                half_inch                      CUMULATIVE  15 min.
  PG028                half_inch                      CUMULATIVE  15 min.
  PG03                 half_inch                      CUMULATIVE  15 min.
  PG04                 half_inch                      CUMULATIVE  15 min.
  PG05                 half_inch                      CUMULATIVE  15 min.
  PG06                 half_inch                      CUMULATIVE  15 min.
  PG07                 half_inch                      CUMULATIVE  15 min.
  PG08                 half_inch                      CUMULATIVE  15 min.
  PG09                 half_inch                      CUMULATIVE  15 min.
  PG10                 half_inch                      CUMULATIVE  15 min.
  PG11                 half_inch                      CUMULATIVE  15 min.
  PG12                 half_inch                      CUMULATIVE  15 min.
  PG13                 half_inch                      CUMULATIVE  15 min.
  PG14                 half_inch                      CUMULATIVE  15 min.
  PG15                 half_inch                      CUMULATIVE  15 min.
  PG16                 half_inch                      CUMULATIVE  15 min.
  PG17                 half_inch                      CUMULATIVE  15 min.
  PG18                 half_inch                      CUMULATIVE  15 min.
  PG19                 half_inch                      CUMULATIVE  15 min.
  PG20                 half_inch                      CUMULATIVE  15 min.
  PG21                 half_inch                      CUMULATIVE  15 min.
  PG22                 half_inch                      CUMULATIVE  15 min.
  PG23                 half_inch                      CUMULATIVE  15 min.
  PG24                 half_inch                      CUMULATIVE  15 min.
  PG25                 half_inch                      CUMULATIVE  15 min.
  PG26                 half_inch                      CUMULATIVE  15 min.
  PG29                 half_inch                      CUMULATIVE  15 min.
  PG30                 half_inch                      CUMULATIVE  15 min.
  PG31                 half_inch                      CUMULATIVE  15 min.
  PG32                 half_inch                      CUMULATIVE  15 min.
  PG33                 half_inch                      CUMULATIVE  15 min.
  PG34                 half_inch                      CUMULATIVE  15 min.
  STS1                 half_inch                      CUMULATIVE  15 min.
  STS2                 half_inch                      CUMULATIVE  15 min.
  STS3                 half_inch                      CUMULATIVE  15 min.
  STS4                 half_inch                      CUMULATIVE  15 min.
  STS5                 half_inch                      CUMULATIVE  15 min.
  STS6                 half_inch                      CUMULATIVE  15 min.
  SYS1                 half_inch                      CUMULATIVE  15 min.
  SYS2                 half_inch                      CUMULATIVE  15 min.
  SYS3                 half_inch                      CUMULATIVE  15 min.
  UTS1                 half_inch                      CUMULATIVE  15 min.
  
  
  ********************
  Subcatchment Summary
  ********************
  Name                       Area     Width   %Imperv    %Slope Rain Gage            Outlet              
  -----------------------------------------------------------------------------------------------------------
  S1000                    213.70  93088.00     72.80    1.0000 PG04                 RC11000             
  S1003                     61.00  26572.00     62.70    1.0000 PG04                 RC11003             
  S100715                  109.30  47611.00     47.10    1.0000 PG04                 RC600715            
  S100730                   84.70  36895.00     45.70    1.0000 PG04                 RC600730            
  S1011                     38.70  16836.00     70.20    1.0000 PG04                 RC11011             
  S101910                   54.80  23858.00     43.70    1.0000 PG11                 RC601910            
  S101919                  291.00 126760.00     60.10    1.0000 PG11                 RC601919            
  S101925                  235.00 102366.00     50.40    1.0000 PG11                 RC601925            
  S101945                  241.00 104980.00     54.50    1.0000 PG11                 RC601945            
  S102505                  114.00  49658.00     44.20    1.0000 PG11                 RC602505            
  S1031                    123.30  53709.00     51.00    1.0000 PG11                 RC11031             
  S103110                   75.00  32670.00     52.60    1.0000 PG11                 RC603110            
  S103115                  249.00 108464.00     50.30    1.0000 PG11                 RC603115            
  S103150                   96.00  41818.00     67.70    1.0000 PG11                 RC603150            
  S103155                   88.00  38333.00     40.40    1.0000 PG11                 RC603155            
  S103160                   67.00  29185.00     54.20    1.0000 PG11                 RC603160            
  S103175                   66.00  28750.00     60.60    1.0000 PG16                 RC603175            
  S103180                   41.00  17860.00     43.00    1.0000 PG16                 RC603180            
  S103185                  132.00  57499.00     51.10    1.0000 PG16                 RC603185            
  S1035                    703.70 306532.00     51.10    1.0000 PG16                 RC11035             
  S1039                    410.90 178988.00     40.70    1.0000 PG15                 RC11039             
  S1051                     41.50  18077.00     43.80    1.0000 PG16                 RC11051             
  S105115                   60.00  26136.00     76.20    1.0000 PG16                 RC605115            
  S105130                   47.00  20473.00     42.50    1.0000 PG16                 RC605130            
  S105140                  111.00  48352.00     64.20    1.0000 PG16                 RC605140            
  S105515                   74.00  32234.00     74.90    1.0000 PG16                 RC605515            
  S105530                  140.00  60984.00     43.70    1.0000 PG16                 RC605530            
  S105545                  143.00  62291.00     61.60    1.0000 PG16                 RC605545            
  S105905                   28.00  12197.00     75.30    1.0000 PG11                 RC605905            
  S1063                     25.00  10890.00     65.60    1.0000 PG16                 RC11063             
  S106705                   85.10  37057.00     59.90    1.0000 PG11                 RC606705            
  S106715                  100.00  43560.00     48.00    1.0000 PG16                 RC606715            
  S106730                   49.00  21344.00     68.70    1.0000 PG16                 RC606730            
  S106745                   54.00  23522.00     45.30    1.0000 PG16                 RC606745            
  S106750                   32.00  13939.00     59.00    1.0000 PG16                 RC606750            
  S106765                   33.00  14375.00     39.30    1.0000 PG16                 RC606765            
  S106770                   78.00  33977.00     65.20    1.0000 PG16                 RC606770            
  S106785                   63.00  27443.00     51.50    1.0000 PG16                 RC606785            
  S107110                   79.00  34412.00     60.90    1.0000 PG26                 RC607110            
  S107130                  164.00  71438.00     65.30    1.0000 PG16                 RC607130            
  S1075                    334.60 145752.00     65.90    1.0000 PG26                 RC11075             
  S107510                  204.00  88862.00     74.70    1.0000 PG26                 RC607510            
  S107530                  183.00  79715.00     59.50    1.0000 PG16                 RC607530            
  S1081                    264.20 115086.00     61.50    1.0000 PG02                 RC11081             
  S108110                  232.00 101059.00     65.90    1.0000 PG02                 RC608110            
  S108135                   91.00  39640.00     39.50    1.0000 PG02                 RC608135            
  S108520                  110.00  47916.00     73.00    1.0000 PG26                 RC608520            
  S108540                  164.00  71438.00     57.70    1.0000 PG26                 RC608540            
  S108920                  176.00  76666.00     72.10    1.0000 PG26                 RC608920            
  S108925                   66.00  28750.00     61.40    1.0000 PG26                 RC608925            
  S108945                   70.00  30492.00     48.60    1.0000 PG26                 RC608945            
  S1093                     41.30  17988.00     39.70    1.0000 PG26                 RC11093             
  S1125                     50.00  21780.00     45.00    1.0000 PG04                 RC1126              
  S1130                     57.00  24829.00     45.00    1.0000 PG04                 RC1131              
  S1155                    312.00 135907.00     45.00    1.0000 PG04                 RC1156              
  S1170                     85.00  37026.00     45.00    1.0000 PG04                 RC1171              
  S1185                   1186.00 516622.00     53.00    1.0000 PG15                 RC11185             
  S1187                    665.00 289674.00     41.70    1.0000 PG15                 RC11187             
  S1188                    729.00 317552.00     50.00    1.0000 PG15                 RC11188             
  S1215                    110.00  47916.00     37.00    1.0000 PG15                 RC11215             
  S1220                     62.00  27007.00     37.00    1.0000 PG15                 RC11220             
  S1225                     90.00  39204.00     37.00    1.0000 PG15                 RC11225             
  S1230                    365.00 158994.00     37.00    1.0000 PG24                 RC11230             
  S1310                    420.00 182952.00     41.00    1.0000 PG15                 RC11310             
  S1320                    318.00 138521.00     41.00    1.0000 PG15                 RC11320             
  S1335                    240.00 104544.00     41.00    1.0000 PG15                 RC11335             
  S1345                   1305.00 568458.00     41.00    1.0000 PG24                 RC11345             
  S1535                   1034.00 450410.00     35.00    1.0000 PG24                 RC11535             
  S1545                   1155.00 503118.00     40.00    1.0000 PG24                 RC11545             
  S1550                    291.00 126760.00     38.00    1.0000 PG18                 RC11550             
  S1570                   1077.00 469141.00     42.00    1.0000 PG18                 RC11570             
  S1571                   1797.00 782773.00     45.00    1.0000 PG03                 RC11571             
  S1601                     42.50  18522.00     81.00    1.0000 PG02                 RC31601             
  S160120                   11.50   4996.00     90.00    1.0000 PG26                 RC3160120           
  S160121                   76.70  33402.00     63.80    1.0000 PG26                 RC3160121           
  S160123                   46.80  20390.00     73.10    1.0000 PG02                 RC3160123           
  S160145                  176.80  77001.00     69.20    1.0000 PG02                 RC3160145           
  S160160                  254.20 110738.00     65.60    1.0000 PG02                 RC3160160           
  S160161                  127.40  55491.00     86.40    1.0000 PG02                 RC3160161           
  S160170                  103.20  44950.00     88.10    1.0000 PG02                 RC3160170           
  S160175                   64.10  27939.00     90.00    1.0000 PG02                 RC3160175           
  S160180                   32.00  13935.00     44.30    1.0000 PG02                 RC3160180           
  S1605                     20.30   8825.00     89.70    1.0000 PG26                 RC31605             
  S160500                   26.10  11382.00     90.00    1.0000 PG26                 RC3160500           
  S160520                   24.00  10441.00     90.00    1.0000 PG26                 RC3160520           
  S160530                   12.60   5506.00     90.00    1.0000 PG26                 RC3160530           
  S160540                   14.50   6329.00     90.00    1.0000 PG26                 RC3160540           
  S160555                   49.30  21471.00     89.30    1.0000 PG26                 RC3160555           
  S160570                   40.60  17672.00     90.00    1.0000 PG26                 RC3160570           
  S1609                     15.60   6787.00     56.30    1.0000 PG26                 RC31609             
  S160900                   25.00  10877.00     90.00    1.0000 PG26                 RC3160900           
  S160910                   27.30  11874.00     90.00    1.0000 PG26                 RC3160910           
  S1613                     13.80   6011.00     72.30    1.0000 PG26                 RC31613             
  S161300                   66.90  29150.00     81.70    1.0000 PG18                 RC3161300           
  S161330                   16.50   7205.00     90.00    1.0000 PG18                 RC3161330           
  S161360                  108.40  47206.00     88.20    1.0000 PG18                 RC3161360           
  S161370                   79.30  34547.00     77.20    1.0000 PG18                 RC3161370           
  S161380                  208.20  90683.00     62.30    1.0000 PG18                 RC3161380           
  S161385                   28.20  12275.00     50.20    1.0000 PG18                 RC3161385           
  S161420                   24.70  10777.00     89.00    1.0000 PG26                 RC3161420           
  S161430                   39.90  17372.00     90.00    1.0000 PG26                 RC3161430           
  S161460                   76.50  33302.00     81.50    1.0000 PG26                 RC3161460           
  S161710                   12.00   5227.00     66.00    1.0000 PG18                 RC3161710           
  S161716                    9.40   4073.00     90.00    1.0000 PG18                 RC3161716           
  S161722                   92.10  40101.00     67.80    1.0000 PG18                 RC3161722           
  S161726                   65.40  28471.00     89.60    1.0000 PG18                 RC3161726           
  S161781                  210.50  91706.00     70.10    1.0000 PG02                 RC3161781           
  S161785                  295.40 128686.00     72.00    1.0000 PG18                 RC3161785           
  S161791                  478.80 208544.00     56.70    1.0000 PG18                 RC3161791           
  S161796                  606.80 264331.00     50.30    1.0000 PG18                 RC3161796           
  S1621                     19.80   8632.00     88.90    1.0000 PG26                 RC31621             
  S16210                    37.20  16226.00     89.60    1.0000 PG26                 RC316210            
  S162110                   23.50  10228.00     90.00    1.0000 PG20                 RC3162110           
  S162120                   32.80  14270.00     90.00    1.0000 PG20                 RC3162120           
  S162135                    9.70   4221.00     90.00    1.0000 PG20                 RC3162135           
  S162144                   83.70  36460.00     74.80    1.0000 PG20                 RC3162144           
  S162155                   24.00  10467.00     31.10    1.0000 PG20                 RC3162155           
  S162165                   33.00  14362.00     51.20    1.0000 PG20                 RC3162165           
  S162180                   14.80   6451.00     90.00    1.0000 PG26                 RC3162180           
  S162195                   20.60   8952.00     68.10    1.0000 PG26                 RC3162195           
  S162205                   51.10  22250.00     76.40    1.0000 PG26                 RC3162205           
  S162210                   26.20  11417.00     90.00    1.0000 PG26                 RC3162210           
  S162230                   19.00   8255.00     90.00    1.0000 PG26                 RC3162230           
  S162265                    8.10   3528.00     90.00    1.0000 PG26                 RC3162265           
  S1627                     30.30  13187.00     88.00    1.0000 PG26                 RC31627             
  S162700                   22.20   9653.00     90.00    1.0000 PG20                 RC3162700           
  S162770                   42.40  18483.00     73.00    1.0000 PG20                 RC3162770           
  S1631                     29.60  12895.00     79.10    1.0000 PG26                 RC31631             
  S163100                   70.50  30710.00     67.80    1.0000 PG20                 RC3163100           
  S163126                   20.70   8999.00     84.60    1.0000 PG20                 RC3163126           
  S163140                   11.20   4887.00     16.80    1.0000 PG20                 RC3163140           
  S163186                   21.40   9304.00     47.90    1.0000 PG20                 RC3163186           
  S163200                   43.60  18975.00     48.30    1.0000 PG20                 RC3163200           
  S1635                     61.80  26919.00     61.00    1.0000 PG26                 RC31635             
  S163510                   18.70   8128.00     25.70    1.0000 PG20                 RC3163510           
  S163520                   18.20   7906.00     50.60    1.0000 PG20                 RC3163520           
  S163536                   35.20  15337.00     86.40    1.0000 PG20                 RC3163536           
  S163550                   46.30  20173.00     77.90    1.0000 PG20                 RC3163550           
  S1639                     67.70  29472.00     54.70    1.0000 PG20                 RC31639             
  S163910                   22.40   9775.00     60.40    1.0000 PG20                 RC3163910           
  S1643                     89.00  38768.00     66.20    1.0000 PG20                 RC31643             
  S164600                  239.80 104435.00     52.80    1.0000 PG20                 RC3164600           
  S164610                   98.40  42855.00     53.30    1.0000 PG20                 RC3164610           
  S164630                  151.90  66159.00     39.40    1.0000 PG20                 RC3164630           
  S164640                  119.10  51889.00     56.10    1.0000 PG20                 RC3164640           
  S164660                  103.00  44862.00     67.60    1.0000 PG20                 RC3164660           
  S164670                   91.00  39635.00     46.60    1.0000 PG20                 RC3164670           
  S164690                   66.20  28841.00     78.10    1.0000 PG18                 RC3164690           
  S1647                     62.30  27125.00     30.80    1.0000 PG20                 RC31647             
  S164700                   80.10  34909.00     90.00    1.0000 PG18                 RC3164700           
  S1651                    125.30  54583.00     43.40    1.0000 PG20                 RC31651             
  S1655                    119.80  52180.00     40.10    1.0000 PG20                 RC31655             
  S16550                   114.00  49642.00     70.40    1.0000 PG20                 RC316550            
  S165510                  150.20  65425.00     38.70    1.0000 PG20                 RC3165510           
  S165530                  504.40 219720.00     72.40    1.0000 PG19                 RC3165530           
  S165540                   86.70  37751.00     79.30    1.0000 PG19                 RC3165540           
  S165555                   62.30  27123.00     40.30    1.0000 PG20                 RC3165555           
  S165560                   55.60  24233.00     42.40    1.0000 PG20                 RC3165560           
  S165570                   23.30  10137.00     52.30    1.0000 PG20                 RC3165570           
  S165590                  112.40  48978.00     65.30    1.0000 PG20                 RC3165590           
  S165600                  247.50 107804.00     19.80    1.0000 PG20                 RC3165600           
  S165610                  263.50 114772.00     42.50    1.0000 PG20                 RC3165610           
  S165630                   72.40  31558.00     38.80    1.0000 PG20                 RC3165630           
  S165640                   36.10  15706.00     45.40    1.0000 PG20                 RC3165640           
  S1663                     14.40   6278.00     34.10    1.0000 PG20                 RC31663             
  S166300                   43.10  18755.00     52.90    1.0000 PG20                 RC3166300           
  S166310                   71.40  31114.00     44.20    1.0000 PG20                 RC3166310           
  S166330                   33.90  14765.00     43.40    1.0000 PG20                 RC3166330           
  S166350                   63.60  27714.00     51.30    1.0000 PG20                 RC3166350           
  S1671                     84.00  36590.00     65.20    1.0000 PG20                 RC11671             
  S167104                   73.00  31799.00     45.30    1.0000 PG31                 RC367104            
  S167114                   49.00  21344.00     40.70    1.0000 PG31                 RC367114            
  S167122                   87.00  37897.00     39.70    1.0000 PG31                 RC367122            
  S167130                   33.00  14375.00     48.00    1.0000 PG31                 RC367130            
  S167204                   81.00  35284.00     42.00    1.0000 PG31                 RC367204            
  S167210                   65.00  28314.00     36.50    1.0000 PG31                 RC367210            
  S167218                   77.00  33541.00     38.50    1.0000 PG31                 RC367218            
  S167228                   29.00  12632.00     40.90    1.0000 PG31                 RC367228            
  S167304                   61.00  26572.00     41.40    1.0000 PG31                 RC367304            
  S167312                   41.00  17860.00     36.10    1.0000 PG31                 RC367312            
  S167320                   97.00  42253.00     40.60    1.0000 PG31                 RC367320            
  S167328                   54.00  23522.00     42.50    1.0000 PG31                 RC367328            
  S167404                   68.00  29621.00     49.80    1.0000 PG31                 RC367404            
  S167412                   63.00  27443.00     56.50    1.0000 PG31                 RC367412            
  S167420                  145.00  63162.00     63.60    1.0000 PG31                 RC367420            
  S168104                  144.00  62726.00     39.80    1.0000 PG31                 RC368104            
  S168112                  153.00  66647.00     39.10    1.0000 PG31                 RC368112            
  S168122                  106.00  46174.00     39.40    1.0000 PG31                 RC368122            
  S168202                  106.00  46174.00     39.20    1.0000 PG31                 RC368202            
  S168208                  100.00  43560.00     39.30    1.0000 PG31                 RC368208            
  S168216                  106.00  46174.00     33.80    1.0000 PG31                 RC368216            
  S168224                   43.00  18731.00     39.60    1.0000 PG31                 RC368224            
  S168304                  121.00  52708.00     40.70    1.0000 PG31                 RC368304            
  S168310                  110.00  47916.00     39.90    1.0000 PG31                 RC368310            
  S168318                  169.00  73616.00     40.80    1.0000 PG31                 RC368318            
  S168326                   57.00  24829.00     45.60    1.0000 PG31                 RC368326            
  S16868                    41.50  18077.00     74.60    1.0000 PG31                 RC36868             
  S168702                  111.00  48352.00     36.10    1.0000 PG31                 RC368702            
  S168712                  191.00  83200.00     38.60    1.0000 PG31                 RC368712            
  S168722                   82.00  35719.00     44.20    1.0000 PG31                 RC368722            
  S169002                  106.00  46174.00     38.00    1.0000 PG22                 RC369002            
  S169010                  244.00 106286.00     40.40    1.0000 PG22                 RC369010            
  S169020                  100.00  43560.00     41.00    1.0000 PG22                 RC369020            
  S1731                    849.00 369824.00     54.50    1.0000 PG22                 RC11731             
  S177851                    7.82   3406.00     12.00    1.0000 PG04                 RC377851            
  S177852                   25.20  10977.00     38.00    1.0000 PG04                 RC377852            
  S177853                    8.30   3615.00     12.00    1.0000 PG04                 RC377853            
  S177854                   26.07  11356.00     45.50    1.0000 PG04                 RC377854            
  S177855                    9.99   4352.00     54.80    1.0000 PG04                 RC377855            
  S177856                   24.53  10685.00     38.00    1.0000 PG04                 RC377856            
  S177860                   13.31   5798.00     38.00    1.0000 PG04                 RC377860            
  S177861                   13.78   6003.00     38.00    1.0000 PG04                 RC377861            
  S177862                   12.12   5279.00     38.00    1.0000 PG04                 RC377862            
  S177870                   70.37  30653.00     31.70    1.0000 PG04                 RC377870            
  S177872                   56.49  24607.00     40.70    1.0000 PG04                 RC377872            
  S177874                  253.08 110242.00     33.30    1.0000 PG04                 RC377874            
  S177876                  145.16  63232.00     17.30    1.0000 PG04                 RC377876            
  S177878                   98.84  43055.00     36.90    1.0000 PG04                 RC377878            
  S1781                    382.00 166399.00     70.00    1.0000 PG15                 RC11781             
  S1782                   2640.001149984.00     43.00    1.0000 PG15                 RC11782             
  S1785                     56.70  24685.00     49.10    1.0000 PG04                 RC11785             
  S1795                   1562.00 680407.00     49.40    1.0000 PG04                 RC11795             
  S1952                   1428.00 622037.00     43.00    1.0000 PG24                 RC1951              
  S19520                   410.00 178596.00     43.00    1.0000 PG15                 RC19523             
  S1953                    263.00 114563.00     36.90    1.0000 PG15                 RC11953             
  S200515                   55.00  23958.00     72.80    1.0000 PG11                 RC700515            
  S200525                   75.00  32670.00     41.20    1.0000 PG11                 RC700525            
  S2030                    548.80 239057.00     55.70    1.0000 PG16                 RC12030             
  S2040                    281.50 122621.00     57.30    1.0000 PG16                 RC12040             
  S2056                    746.40 325132.00     42.70    1.0000 PG18                 RC12056             
  S2060                    118.80  51749.00     40.00    1.0000 PG18                 RC12060             
  S2115                     27.30  11879.00     90.00    1.0000 PG26                 RC32115             
  S2140                     82.60  35998.00     81.00    1.0000 PG26                 RC32140             
  S214500                  173.20  75446.00     75.00    1.0000 PG02                 RC3214500           
  S2160                    479.60 208909.00     41.10    1.0000 PG18                 RC32160             
  S2200                   1593.00 693911.00     37.00    1.0000 PG03                 RC12200             
  S2201                     47.00  20473.00     38.00    1.0000 PG03                 RC12201             
  S2315                   1074.00 467834.00     50.00    1.0000 PG08                 RC12315             
  S2345                    766.00 333670.00     41.00    1.0000 PG08                 RC12345             
  S2350                   1089.00 474368.00     35.00    1.0000 PG08                 RC12350             
  S2355                   1651.00 719176.00     35.00    1.0000 PG03                 RC12355             
  S2389                    800.00 348480.00     40.00    1.0000 PG17                 RC12389             
  S2397                    456.00 198634.00     40.00    1.0000 PG17                 RC12397             
  S2505                    965.00 420354.00     55.00    1.0000 PG19                 RC12505             
  S2520                    716.00 311890.00     44.00    1.0000 PG03                 RC12520             
  S2521                     62.00  27007.00     39.00    1.0000 PG03                 RC12521             
  S2560                    690.00 300564.00     62.00    1.0000 PG19                 RC12560             
  S2575                    989.00 430808.00     52.00    1.0000 PG19                 RC12575             
  S2576                     95.00  41382.00     60.00    1.0000 PG19                 RC12576             
  S2605                    169.00  73616.00     44.00    1.0000 PG19                 RC12605             
  S2730                    158.80  69186.00     43.20    1.0000 PG20                 RC32730             
  S2735                     35.00  15246.00     49.80    1.0000 PG19                 RC12735             
  S2736                     22.00   9583.00     76.60    1.0000 PG19                 RC12736             
  S2740                    821.00 357628.00     44.10    1.0000 PG19                 RC12740             
  S2765                    432.00 188179.00     46.00    1.0000 PG08                 RC12765             
  S2770                     97.00  42253.00     40.00    1.0000 PG08                 RC12770             
  S2805                     20.00   8712.00     78.60    1.0000 PG20                 RC12805             
  S2810                     59.00  25700.00     77.20    1.0000 PG20                 RC12810             
  S2812                     40.00  17424.00     77.70    1.0000 PG20                 RC12812             
  S2817                     35.00  15246.00     69.60    1.0000 PG20                 RC12817             
  S2836                   1202.00 523591.00     45.30    1.0000 PG20                 RC12836             
  S2912                    166.00  72310.00     42.00    1.0000 PG23                 RC12912             
  S2915                    184.00  80150.00     40.00    1.0000 PG22                 RC12915             
  S2920                    239.00 104108.00     18.00    1.0000 PG22                 RC12920             
  S2930                    465.00 202554.00     42.00    1.0000 PG22                 RC12930             
  S2935                   1146.00 499198.00     40.00    1.0000 PG14                 RC12935             
  S2960                    186.00  81022.00     39.00    1.0000 PG14                 RC12960             
  S2965                    489.00 213008.00     41.00    1.0000 PG14                 RC12965             
  S2980                    319.00 138956.00     14.00    1.0000 PG14                 RC12980             
  S5030                    437.00 190357.00     67.30    1.0000 PG23                 RC15030             
  S5040                    717.00 312325.00     34.40    1.0000 PG31                 RC15040             
  S5105                    282.00 122839.00     38.20    1.0000 PG23                 RC15105             
  S5108                    119.00  51836.00     40.00    1.0000 PG23                 RC15108             
  S5110                    261.00 113692.00     38.00    1.0000 PG23                 RC15110             
  S5115                    463.00 201683.00     36.00    1.0000 PG23                 RC15115             
  S5250                    453.00 197327.00     41.00    1.0000 PG22                 RC15250             
  S5255                   1599.00 696524.00     40.00    1.0000 PG14                 RC15255             
  S5415                     58.00  25265.00     41.00    1.0000 PG25                 RC15415             
  S5420                    294.00 128066.00     39.00    1.0000 PG25                 RC15420             
  S5510                    778.00 338897.00     40.00    1.0000 PG22                 RC15510             
  S5530                    820.00 357192.00     40.00    1.0000 PG14                 RC15530             
  S5555                    273.00 118919.00     40.00    1.0000 PG14                 RC15555             
  S5615                    730.00 317988.00     40.00    1.0000 PG25                 RC15615             
  S5710                    537.00 233917.00     41.00    1.0000 PG25                 RC15710             
  S5729                   2027.00 882961.00     39.00    1.0000 PG25                 RC15729             
  S5731                    195.00  84942.00     32.00    1.0000 PG25                 RC15731             
  S5802                    314.00 136778.00     40.00    1.0000 PG23                 RC15802             
  S600                     250.00 108900.00     50.00    1.0000 PG21                 RC10600             
  S6156                    876.00 381586.00     15.00    1.0000 PG07                 RC16156             
  S6166                   2352.001024531.00     14.00    1.0000 PG07                 RC16166             
  S6167                   1270.00 553212.00     16.00    1.0000 PG07                 RC16167             
  S630                     396.00 172498.00     50.00    1.0000 PG21                 RC10630             
  S650                     813.00 354143.00     50.00    1.0000 PG21                 RC10650             
  S7001                    275.00 119790.00     33.00    1.0000 PG25                 RC17001             
  S7003                    756.00 329314.00     32.00    1.0000 PG25                 RC17003             
  S7004                    624.00 271814.00     33.00    1.0000 PG25                 RC17004             
  S7031                   3661.001594732.00     35.00    1.0000 PG25                 RC17031             
  S7041                   3583.001560755.00     36.00    1.0000 PG05                 RC17041             
  S7046                    899.00 391604.00     33.00    1.0000 PG05                 RC17046             
  S8012                   1148.00 500069.00     33.00    1.0000 PG17                 RC18012             
  S8014                    479.00 208652.00     33.00    1.0000 PG17                 RC18014             
  S82051                  9934.004327250.00     33.00    1.0000 PG17                 RC92051             
  S82052                  7634.003325370.00     33.00    1.0000 PG13                 RC92052             
  S82053                  6653.002898047.00     33.00    1.0000 PG028                RC92053             
  
  
  ************
  Node Summary
  ************
                                           Invert      Max.    Ponded    External
  Name                 Type                 Elev.     Depth      Area    Inflow  
  -------------------------------------------------------------------------------
  10                   JUNCTION            569.76     30.00       0.0
  1002                 JUNCTION            546.17     38.09       0.0
  10030                JUNCTION            560.56     22.90       0.0
  1006                 JUNCTION            546.66     45.40       0.0
  100710               JUNCTION            563.56     28.00       0.0
  100715               JUNCTION            564.00     25.76       0.0    Yes
  100725               JUNCTION            567.28     24.88       0.0
  100730               JUNCTION            568.33     24.93       0.0    Yes
  1010                 JUNCTION            547.02     44.54       0.0
  10111                JUNCTION            574.06     17.50       0.0
  1014                 JUNCTION            547.74     40.82       0.0
  1018                 JUNCTION            548.54     40.42       0.0
  101905               JUNCTION            572.75     18.31       0.0
  101910               JUNCTION            573.58     17.28       0.0    Yes
  101917               JUNCTION            571.01     19.15       0.0
  101920               JUNCTION            575.51     13.55       0.0
  101925               JUNCTION            577.17     10.59       0.0    Yes
  101926               JUNCTION            569.28     20.98       0.0
  101927               JUNCTION            568.36     19.90       0.0
  101930               JUNCTION            567.94     21.12       0.0
  101935               JUNCTION            569.32     21.64       0.0
  101940               JUNCTION            577.63     14.13       0.0
  101947               JUNCTION            571.13     18.13       0.0
  1022                 JUNCTION            548.75     39.71       0.0
  1024                 JUNCTION            549.26     36.80       0.0
  102505               JUNCTION            563.07     23.69       0.0    Yes
  102510               JUNCTION            564.10     25.76       0.0
  1028                 JUNCTION            549.71     38.05       0.0
  1030                 JUNCTION            550.01     36.85       0.0
  103105               JUNCTION            574.20     13.26       0.0
  103110               JUNCTION            576.66     10.60       0.0    Yes
  103112               JUNCTION            566.07     21.19       0.0
  103114               JUNCTION            568.36     20.80       0.0
  103115               JUNCTION            577.09     12.07       0.0    Yes
  103120               JUNCTION            559.46     29.20       0.0
  103122               JUNCTION            573.94     14.72       0.0
  103125               JUNCTION            563.82     22.94       0.0
  103130               JUNCTION            565.14     23.42       0.0
  103140               JUNCTION            565.20     23.36       0.0
  103145               JUNCTION            566.46     25.80       0.0
  103155               JUNCTION            576.65     12.01       0.0    Yes
  103160               JUNCTION            577.10     16.46       0.0    Yes
  103170               JUNCTION            573.91     12.85       0.0
  103175               JUNCTION            575.19     10.77       0.0    Yes
  103180               JUNCTION            576.84     21.22       0.0    Yes
  1034                 JUNCTION            550.30     35.16       0.0
  10351                JUNCTION            563.76     66.00       0.0
  103510               JUNCTION            561.88     25.88       0.0
  10352                JUNCTION            561.56     68.20       0.0
  1038                 JUNCTION            550.33     33.93       0.0
  103905               JUNCTION            572.14     16.32       0.0
  103910               JUNCTION            572.26     21.50       0.0
  103915               JUNCTION            573.08     16.78       0.0
  103920               JUNCTION            574.20     20.46       0.0
  1042                 JUNCTION            550.45     31.91       0.0
  10442                JUNCTION            567.96     36.80       0.0
  1046                 JUNCTION            550.51     30.95       0.0
  1048                 JUNCTION            568.06     36.70       0.0
  1050                 JUNCTION            550.70     29.26       0.0
  105105               JUNCTION            573.60     11.66       0.0
  105120               JUNCTION            574.74     14.22       0.0
  105125               JUNCTION            574.88     16.38       0.0
  105130               JUNCTION            576.04     19.52       0.0    Yes
  105135               JUNCTION            576.68     19.68       0.0
  1054                 JUNCTION            551.10     30.66       0.0
  105505               JUNCTION            573.16     12.30       0.0
  105510               JUNCTION            574.33     14.53       0.0
  105515               JUNCTION            575.27     11.59       0.0    Yes
  105520               JUNCTION            575.58     13.28       0.0
  105525               JUNCTION            577.50     16.86       0.0
  105535               JUNCTION            582.43     13.83       0.0
  105540               JUNCTION            582.46     13.80       0.0
  105542               JUNCTION            568.27     27.19       0.0
  105550               JUNCTION            585.15     14.11       0.0
  105555               JUNCTION            585.19     14.07       0.0
  105557               JUNCTION            571.63     27.53       0.0
  1058                 JUNCTION            551.81     27.55       0.0
  105905               JUNCTION            576.46     16.00       0.0    Yes
  10601                JUNCTION            572.56     32.20       0.0
  1062                 JUNCTION            552.05     29.71       0.0
  1066                 JUNCTION            552.36     34.70       0.0
  106705               JUNCTION            573.46     15.60       0.0    Yes
  106710               JUNCTION            573.76     21.00       0.0
  106715               JUNCTION            574.25     15.21       0.0    Yes
  10672                JUNCTION            569.83     34.93       0.0
  106720               JUNCTION            575.26     18.70       0.0
  106725               JUNCTION            576.09     18.57       0.0
  106730               JUNCTION            576.84     18.62       0.0    Yes
  106735               JUNCTION            578.71     20.55       0.0
  106740               JUNCTION            581.90     16.76       0.0
  106745               JUNCTION            581.93     16.73       0.0    Yes
  106747               JUNCTION            572.22     26.24       0.0
  106750               JUNCTION            575.68     17.98       0.0    Yes
  106755               JUNCTION            578.67     18.69       0.0
  106760               JUNCTION            580.03     18.33       0.0
  106765               JUNCTION            580.06     18.30       0.0    Yes
  106767               JUNCTION            570.19     28.17       0.0
  106775               JUNCTION            579.16     17.80       0.0
  106780               JUNCTION            581.34     15.92       0.0
  106785               JUNCTION            581.37     15.89       0.0    Yes
  106787               JUNCTION            569.49     28.07       0.0
  106790               JUNCTION            581.52     16.04       0.0
  106795               JUNCTION            584.38     16.08       0.0
  106800               JUNCTION            584.43     16.03       0.0
  106802               JUNCTION            573.96     26.50       0.0
  106805               JUNCTION            580.42     17.74       0.0
  106810               JUNCTION            584.71     18.95       0.0
  106815               JUNCTION            584.76     18.90       0.0
  106817               JUNCTION            575.45     28.21       0.0
  106820               JUNCTION            584.33     14.93       0.0
  106825               JUNCTION            588.39     14.87       0.0
  106830               JUNCTION            588.43     14.83       0.0
  106832               JUNCTION            576.45     26.81       0.0
  1070                 JUNCTION            552.74     38.12       0.0
  107105               JUNCTION            573.82     17.44       0.0
  107110               JUNCTION            576.14     19.02       0.0    Yes
  107115               JUNCTION            578.53     18.03       0.0
  107125               JUNCTION            580.95     20.11       0.0
  107135               JUNCTION            582.65     17.31       0.0
  107140               JUNCTION            584.30     14.86       0.0
  107145               JUNCTION            584.33     14.83       0.0
  107147               JUNCTION            574.51     24.65       0.0
  107150               JUNCTION            585.36     14.00       0.0
  107155               JUNCTION            589.63     16.63       0.0
  107160               JUNCTION            589.68     16.58       0.0
  107162               JUNCTION            578.45     27.81       0.0
  107163               JUNCTION            577.09     27.47       0.0
  1074                 JUNCTION            553.02     36.84       0.0
  107505               JUNCTION            572.56     20.40       0.0
  10751                JUNCTION            572.16     32.60       0.0
  107515               JUNCTION            578.97     21.79       0.0
  107520               JUNCTION            579.07     21.69       0.0
  107525               JUNCTION            580.50     21.76       0.0
  107535               JUNCTION            582.33     20.73       0.0
  107540               JUNCTION            585.18     20.48       0.0
  107545               JUNCTION            586.56     22.10       0.0
  107550               JUNCTION            586.98     23.08       0.0
  107560               JUNCTION            581.48     28.58       0.0
  107565               JUNCTION            578.21     26.55       0.0
  107575               JUNCTION            586.69     21.97       0.0
  107580               JUNCTION            586.76     21.90       0.0
  1078                 JUNCTION            553.35     37.31       0.0
  1080                 JUNCTION            553.70     31.66       0.0
  108105               JUNCTION            573.88     17.08       0.0
  10811                JUNCTION            577.28     27.48       0.0
  108115               JUNCTION            584.79     18.77       0.0
  10812                JUNCTION            573.61     31.15       0.0
  108120               JUNCTION            585.71     19.05       0.0
  108125               JUNCTION            587.07     16.59       0.0
  108130               JUNCTION            587.97     15.99       0.0
  108135               JUNCTION            587.70     16.26       0.0    Yes
  108140               JUNCTION            591.26     16.80       0.0
  108145               JUNCTION            593.34     16.12       0.0
  108152               JUNCTION            593.28     20.78       0.0
  1084                 JUNCTION            554.05     30.11       0.0
  108505               JUNCTION            576.21     28.05       0.0
  108510               JUNCTION            576.43     22.33       0.0
  108512               JUNCTION            581.11     17.65       0.0
  108515               JUNCTION            581.11     14.85       0.0
  108520               JUNCTION            582.83     15.63       0.0    Yes
  108525               JUNCTION            587.33     15.43       0.0
  108530               JUNCTION            588.13     15.83       0.0
  108535               JUNCTION            589.46     17.00       0.0
  1088                 JUNCTION            554.34     26.32       0.0
  108905               JUNCTION            573.26      8.00       0.0
  108910               JUNCTION            573.78     18.58       0.0
  108915               JUNCTION            575.78     18.38       0.0
  108930               JUNCTION            585.01     19.65       0.0
  108935               JUNCTION            585.38     20.78       0.0
  108940               JUNCTION            589.45     19.01       0.0
  108945               JUNCTION            592.07     15.89       0.0    Yes
  108950               JUNCTION            597.75     13.91       0.0
  108955               JUNCTION            595.78     21.28       0.0
  1092                 JUNCTION            554.83     25.23       0.0
  1096                 JUNCTION            554.97     25.19       0.0
  1100                 JUNCTION            557.52     26.74       0.0
  11501                JUNCTION            558.57     26.69       0.0
  11521                JUNCTION            559.76     25.50       0.0
  11523                JUNCTION            559.57     28.09       0.0
  11524                JUNCTION            557.66     29.30       0.0
  1155                 JUNCTION            558.92     22.94       0.0
  11601                JUNCTION            569.76     19.50       0.0
  1165                 JUNCTION            559.96     24.30       0.0
  1170                 JUNCTION            563.25     23.81       0.0
  1180                 JUNCTION            563.75     24.61       0.0
  1195                 JUNCTION            568.36     29.20       0.0
  1200                 JUNCTION            569.86     31.00       0.0    Yes
  1205                 JUNCTION            571.26     31.70       0.0
  12123                JUNCTION            571.66     32.70       0.0
  12124                JUNCTION            571.66     32.70       0.0
  1215                 JUNCTION            572.46     35.30       0.0    Yes
  1220                 JUNCTION            573.66     37.40       0.0    Yes
  12201                JUNCTION            584.06     26.40       0.0
  1225                 JUNCTION            579.86     36.20       0.0    Yes
  1230                 JUNCTION            583.76     41.00       0.0    Yes
  12301                JUNCTION            599.06     26.50       0.0
  12304                JUNCTION            599.86     25.70       0.0
  1300                 JUNCTION            573.96     25.20       0.0
  1305                 JUNCTION            578.96     25.00       0.0
  1310                 JUNCTION            583.16     22.70       0.0    Yes
  1325                 JUNCTION            589.46     23.80       0.0
  1330                 JUNCTION            590.56     25.60       0.0
  1340                 JUNCTION            595.36     27.40       0.0
  1345                 JUNCTION            598.56     30.00       0.0    Yes
  1400                 JUNCTION            560.66     20.30       0.0
  1415                 JUNCTION            564.36     31.70       0.0
  1420                 JUNCTION            564.96     28.90       0.0
  1425                 JUNCTION            565.06     26.90       0.0
  1430                 JUNCTION            565.36     27.90       0.0
  14301                JUNCTION            565.23     29.53       0.0
  1435                 JUNCTION            565.56     29.20       0.0
  1440                 JUNCTION            565.76     29.10       0.0
  1445                 JUNCTION            566.16     28.90       0.0
  1503                 JUNCTION            581.56     29.10       0.0
  15031                JUNCTION            581.66     29.00       0.0
  15032                JUNCTION            581.66     29.00       0.0
  1510                 JUNCTION            586.71     31.45       0.0
  1515                 JUNCTION            587.26     33.20       0.0    Yes
  15163                JUNCTION            587.31     33.15       0.0
  15164                JUNCTION            587.31     33.15       0.0
  1520                 JUNCTION            588.76     36.00       0.0
  1525                 JUNCTION            589.96     39.90       0.0
  1530                 JUNCTION            590.56     40.90       0.0
  1540                 JUNCTION            591.96     42.10       0.0
  1545                 JUNCTION            594.36     42.90       0.0    Yes
  1546                 JUNCTION            598.46     39.30       0.0
  1555                 JUNCTION            598.96     36.20       0.0
  1560                 JUNCTION            600.06     36.30       0.0
  160100               JUNCTION            574.07     29.49       0.0
  160110               JUNCTION            575.06     21.40       0.0
  160122               JUNCTION            580.05     28.41       0.0
  160130               JUNCTION            583.18     25.12       0.0
  160140               JUNCTION            585.72     27.28       0.0
  160146               JUNCTION            589.06     33.76       0.0
  160147               JUNCTION            590.41     33.69       0.0
  160150               JUNCTION            591.77     33.59       0.0
  160171               JUNCTION            582.51     24.95       0.0
  160172               JUNCTION            588.45     22.01       0.0
  160173               JUNCTION            594.39     18.97       0.0
  1604                 JUNCTION            556.08     25.38       0.0
  160510               JUNCTION            572.14     17.62       0.0
  160550               JUNCTION            580.94     23.82       0.0
  160556               JUNCTION            590.31     19.45       0.0
  160557               JUNCTION            597.46     15.30       0.0
  160560               JUNCTION            604.62     11.14       0.0
  1608                 JUNCTION            556.56     32.00       0.0
  16090                JUNCTION            567.86     34.10       0.0
  1612                 JUNCTION            556.64     32.62       0.0
  161310               JUNCTION            578.00     19.21       0.0
  161320               JUNCTION            579.66     14.10       0.0
  161340               JUNCTION            583.72     32.04       0.0
  161350               JUNCTION            585.06     32.20       0.0
  161358               JUNCTION            590.55     37.84       0.0
  161359               JUNCTION            592.26     38.46       0.0
  161367               JUNCTION            595.66     37.60       0.0
  161368               JUNCTION            597.36     36.10       0.0
  161369               JUNCTION            598.96     34.70       0.0
  161371               JUNCTION            604.66     28.10       0.0
  161382               JUNCTION            605.48     26.86       0.0
  161384               JUNCTION            607.41     26.35       0.0
  161415               JUNCTION            585.56     17.10       0.0
  161425               JUNCTION            585.66     17.00       0.0
  161450               JUNCTION            595.21     20.55       0.0
  1616                 JUNCTION            556.75     34.31       0.0
  16170                JUNCTION            562.51     20.55       0.0
  161700               JUNCTION            558.45     41.31       0.0
  161715               JUNCTION            582.06     27.70       0.0
  16172                JUNCTION            569.56     35.20       0.0
  161720               JUNCTION            575.32     42.34       0.0
  161721               JUNCTION            581.90     33.56       0.0
  161725               JUNCTION            583.48     28.28       0.0
  16173                JUNCTION            569.56     35.20       0.0
  161730               JUNCTION            577.38     41.58       0.0
  161735               JUNCTION            584.96     34.30       0.0
  16174                JUNCTION            569.56     35.20       0.0
  161740               JUNCTION            587.59     32.17       0.0
  161745               JUNCTION            591.40     29.06       0.0
  161750               JUNCTION            595.35     26.21       0.0
  161755               JUNCTION            598.53     23.53       0.0
  161760               JUNCTION            601.08     21.38       0.0
  161768               JUNCTION            579.09     42.13       0.0
  161769               JUNCTION            580.79     42.70       0.0
  161770               JUNCTION            582.50     43.26       0.0
  161778               JUNCTION            584.55     43.34       0.0
  161779               JUNCTION            586.60     43.46       0.0
  161780               JUNCTION            588.66     43.60       0.0
  161788               JUNCTION            593.84     37.92       0.0
  161789               JUNCTION            595.18     36.58       0.0
  161790               JUNCTION            596.53     32.63       0.0
  161795               JUNCTION            591.44     40.12       0.0
  1620                 JUNCTION            556.88     34.58       0.0
  162100               JUNCTION            575.77     23.99       0.0
  162130               JUNCTION            584.51     19.25       0.0
  162140               JUNCTION            597.49     15.37       0.0
  162145               JUNCTION            587.80     25.06       0.0
  162150               JUNCTION            603.76     13.60       0.0
  162160               JUNCTION            606.41     13.35       0.0
  162170               JUNCTION            579.00     19.06       0.0
  162185               JUNCTION            579.36     35.40       0.0
  162190               JUNCTION            589.38     25.58       0.0
  162200               JUNCTION            602.99     16.27       0.0
  162220               JUNCTION            579.06     18.65       0.0
  162225               JUNCTION            560.65     41.53       0.0
  162240               JUNCTION            578.12     19.94       0.0
  162250               JUNCTION            580.66     23.10       0.0
  162260               JUNCTION            582.16     18.30       0.0
  162265               JUNCTION            564.31     38.15       0.0
  1624                 JUNCTION            556.98     25.78       0.0
  1626                 JUNCTION            558.29     24.47       0.0
  16271                JUNCTION            575.26     29.50       0.0
  162710               JUNCTION            584.06     16.65       0.0
  16272                JUNCTION            573.26     31.50       0.0
  162720               JUNCTION            585.26     15.00       0.0
  162730               JUNCTION            589.37     12.89       0.0
  162740               JUNCTION            591.70     28.16       0.0
  162750               JUNCTION            600.53     18.73       0.0
  162760               JUNCTION            604.13     16.33       0.0
  1630                 JUNCTION            558.51     25.25       0.0
  16310                JUNCTION            569.09     14.37       0.0
  163110               JUNCTION            582.85     15.61       0.0
  163111               JUNCTION            585.88     19.72       0.0
  163112               JUNCTION            588.91     23.83       0.0
  163120               JUNCTION            591.94     27.95       0.0
  163130               JUNCTION            609.72     12.34       0.0
  163150               JUNCTION            584.86     16.59       0.0
  163160               JUNCTION            588.22     22.37       0.0
  163180               JUNCTION            605.16     12.80       0.0
  163190               JUNCTION            608.95     12.61       0.0
  1634                 JUNCTION            558.84     22.92       0.0
  163500               JUNCTION            578.16     18.35       0.0
  163530               JUNCTION            605.08     13.98       0.0
  163540               JUNCTION            611.20     11.26       0.0
  1638                 JUNCTION            558.99     22.77       0.0
  163908               JUNCTION            574.82     18.84       0.0
  163909               JUNCTION            577.85     27.41       0.0
  163920               JUNCTION            583.89     35.37       0.0
  16393                JUNCTION            574.76     30.00       0.0
  163930               JUNCTION            584.23     33.13       0.0
  16394                JUNCTION            573.76     31.00       0.0
  163940               JUNCTION            585.06     35.00       0.0
  16395                JUNCTION            571.34     33.42       0.0
  163950               JUNCTION            605.63     13.33       0.0
  163960               JUNCTION            592.42     28.04       0.0
  163970               JUNCTION            605.46     13.90       0.0
  1642                 JUNCTION            559.30     24.46       0.0
  16441                JUNCTION            564.16     40.60       0.0
  16444                JUNCTION            564.56     38.70       0.0
  16447                JUNCTION            554.76     48.00       0.0
  164590               JUNCTION            574.32     19.71       0.0
  164593               JUNCTION            576.58     26.05       0.0
  164594               JUNCTION            578.84     32.38       0.0
  1646                 JUNCTION            560.50     23.76       0.0
  164601               JUNCTION            582.58     39.48       0.0
  164602               JUNCTION            584.07     40.23       0.0
  164603               JUNCTION            585.56     40.98       0.0
  164620               JUNCTION            590.28     36.98       0.0
  164680               JUNCTION            602.23     24.73       0.0
  16471                JUNCTION            575.76     29.00       0.0
  164710               JUNCTION            602.80     28.18       0.0
  16472                JUNCTION            574.80     29.96       0.0
  16475                JUNCTION            572.76     32.00       0.0
  1650                 JUNCTION            560.74     24.02       0.0
  16511                JUNCTION            574.96     29.80       0.0
  16512                JUNCTION            574.66     30.10       0.0
  16513                JUNCTION            574.33     29.93       0.0
  1654                 JUNCTION            561.10     23.66       0.0
  165500               JUNCTION            579.27     46.69       0.0
  165501               JUNCTION            574.91     47.05       0.0
  165502               JUNCTION            576.36     46.90       0.0
  165503               JUNCTION            577.82     46.84       0.0
  16551                JUNCTION            571.36     33.40       0.0
  165520               JUNCTION            583.95     44.81       0.0
  165531               JUNCTION            596.92     33.64       0.0
  165532               JUNCTION            598.85     30.91       0.0
  165533               JUNCTION            601.18     25.58       0.0
  165541               JUNCTION            603.66     25.20       0.0
  165550               JUNCTION            590.64     36.92       0.0
  165580               JUNCTION            588.28     40.28       0.0
  165601               JUNCTION            572.66     29.70       0.0
  165602               JUNCTION            575.16     33.00       0.0
  165603               JUNCTION            577.66     36.30       0.0
  165611               JUNCTION            582.05     39.01       0.0
  165612               JUNCTION            583.92     38.44       0.0
  165613               JUNCTION            585.79     37.87       0.0
  165615               JUNCTION            580.06     37.70       0.0
  165620               JUNCTION            587.66     37.30       0.0
  1658                 JUNCTION            561.34     25.42       0.0
  1662                 JUNCTION            561.88     26.88       0.0
  16630                JUNCTION            572.16     12.20       0.0
  16631                JUNCTION            572.16     27.60       0.0
  166312               JUNCTION            582.76     24.00       0.0
  166314               JUNCTION            586.36     28.70       0.0
  16632                JUNCTION            571.21     28.55       0.0
  166320               JUNCTION            590.06     29.73       0.0
  166340               JUNCTION            593.13     26.07       0.0
  166360               JUNCTION            574.07     11.00       0.0
  1666                 JUNCTION            563.09     31.67       0.0
  167100               JUNCTION            578.70     21.06       0.0
  167102               JUNCTION            580.10     18.66       0.0
  167106               JUNCTION            583.18     17.58       0.0
  167108               JUNCTION            584.86     17.90       0.0
  16711                JUNCTION            575.06     29.70       0.0
  167110               JUNCTION            585.46     18.30       0.0
  167112               JUNCTION            586.48     22.28       0.0
  167116               JUNCTION            589.54     22.22       0.0
  167118               JUNCTION            591.07     21.69       0.0
  167120               JUNCTION            592.97     21.79       0.0
  167124               JUNCTION            596.77     21.99       0.0
  167126               JUNCTION            598.87     19.89       0.0
  167128               JUNCTION            600.97     19.79       0.0
  167200               JUNCTION            577.30     22.46       0.0
  167202               JUNCTION            579.20     19.56       0.0
  167206               JUNCTION            583.40     21.36       0.0
  167208               JUNCTION            585.70     21.06       0.0
  167212               JUNCTION            589.46     23.30       0.0
  167214               JUNCTION            591.13     23.63       0.0
  167216               JUNCTION            592.93     23.83       0.0
  167220               JUNCTION            595.93     23.83       0.0
  167222               JUNCTION            598.10     22.66       0.0
  167224               JUNCTION            600.27     22.49       0.0
  167226               JUNCTION            601.17     24.59       0.0
  167302               JUNCTION            577.12     19.64       0.0
  167306               JUNCTION            580.58     23.18       0.0
  167308               JUNCTION            582.58     23.18       0.0
  167310               JUNCTION            584.38     23.38       0.0
  167314               JUNCTION            587.70     23.06       0.0
  167316               JUNCTION            589.36     23.40       0.0
  167318               JUNCTION            591.46     26.30       0.0
  167322               JUNCTION            595.37     26.39       0.0
  167324               JUNCTION            597.32     26.44       0.0
  167326               JUNCTION            599.27     26.49       0.0
  1674                 JUNCTION            564.24     33.52       0.0
  167400               JUNCTION            576.71     24.05       0.0
  167402               JUNCTION            578.28     19.48       0.0
  167406               JUNCTION            581.85     24.91       0.0
  167408               JUNCTION            583.85     24.91       0.0
  167410               JUNCTION            585.85     24.91       0.0
  167414               JUNCTION            589.19     24.57       0.0
  167416               JUNCTION            590.86     24.90       0.0
  167418               JUNCTION            592.66     25.10       0.0
  167422               JUNCTION            596.32     25.44       0.0
  167424               JUNCTION            598.62     22.14       0.0
  167426               JUNCTION            600.92     21.84       0.0    Yes
  16750                JUNCTION            575.66     22.10       0.0
  167500               JUNCTION            578.26     23.50       0.0
  167502               JUNCTION            580.09     17.67       0.0
  167506               JUNCTION            583.75     18.01       0.0
  167508               JUNCTION            585.19     29.57       0.0
  167510               JUNCTION            586.63     30.13       0.0
  167512               JUNCTION            588.84     28.92       0.0
  167514               JUNCTION            591.06     28.70       0.0
  167516               JUNCTION            593.28     28.48       0.0
  167518               JUNCTION            595.24     27.52       0.0
  167520               JUNCTION            597.20     27.56       0.0
  167522               JUNCTION            599.16     27.60       0.0    Yes
  1678                 JUNCTION            566.20     29.66       0.0
  1680                 JUNCTION            566.98     29.08       0.0
  16810                JUNCTION            575.31     20.95       0.0
  168100               JUNCTION            577.26     19.50       0.0
  168102               JUNCTION            578.48     21.28       0.0
  168106               JUNCTION            580.93     21.83       0.0
  168108               JUNCTION            582.53     23.23       0.0
  168110               JUNCTION            583.88     22.88       0.0
  168114               JUNCTION            587.44     24.32       0.0
  168116               JUNCTION            588.91     22.85       0.0
  168118               JUNCTION            590.39     22.37       0.0
  168120               JUNCTION            592.05     20.71       0.0
  168200               JUNCTION            576.76     20.00       0.0
  168204               JUNCTION            579.68     20.08       0.0
  168206               JUNCTION            581.49     22.27       0.0
  168210               JUNCTION            584.91     22.85       0.0
  168212               JUNCTION            586.52     23.24       0.0
  168214               JUNCTION            588.66     23.10       0.0
  168218               JUNCTION            592.43     22.33       0.0
  168220               JUNCTION            594.23     21.53       0.0
  168222               JUNCTION            596.03     21.73       0.0
  168300               JUNCTION            577.26     22.50       0.0
  168302               JUNCTION            578.70     20.06       0.0
  168306               JUNCTION            581.62     20.14       0.0
  168308               JUNCTION            583.31     22.45       0.0
  16831                JUNCTION            563.96     65.80       0.0
  168312               JUNCTION            586.43     25.33       0.0
  168314               JUNCTION            587.86     24.90       0.0
  168316               JUNCTION            589.87     21.89       0.0
  16832                JUNCTION            563.96     65.80       0.0
  168320               JUNCTION            593.91     23.85       0.0
  168322               JUNCTION            595.89     23.87       0.0
  168324               JUNCTION            597.87     23.89       0.0
  16833                JUNCTION            563.96     65.80       0.0
  16834                JUNCTION            563.96     65.80       0.0
  1684                 JUNCTION            567.42     28.94       0.0
  16855                JUNCTION            557.86     43.50       0.0
  16856                JUNCTION            565.06     34.40       0.0
  16857                JUNCTION            565.71     35.65       0.0
  16858                JUNCTION            566.36     33.40       0.0
  16859                JUNCTION            566.71     34.65       0.0
  1686                 JUNCTION            568.14     18.02       0.0
  16860                JUNCTION            567.06     34.30       0.0
  168611               JUNCTION            571.49     29.87       0.0
  168615               JUNCTION            578.13     23.23       0.0
  16862                JUNCTION            569.86     34.10       0.0
  168621               JUNCTION            568.08     31.38       0.0
  168622               JUNCTION            568.65     32.01       0.0
  168623               JUNCTION            569.21     32.85       0.0
  16863                JUNCTION            575.36     28.60       0.0
  168631               JUNCTION            571.76     32.10       0.0
  168632               JUNCTION            572.74     31.12       0.0
  168633               JUNCTION            573.71     30.15       0.0
  168634               JUNCTION            574.54     29.32       0.0
  16864                JUNCTION            573.06     38.30       0.0
  168641               JUNCTION            571.28     35.48       0.0
  168642               JUNCTION            571.86     36.40       0.0
  168643               JUNCTION            572.44     38.52       0.0
  16865                JUNCTION            589.42     21.94       0.0
  168652               JUNCTION            580.22     30.04       0.0
  168653               JUNCTION            583.19     32.57       0.0
  168654               JUNCTION            585.47     31.59       0.0
  168655               JUNCTION            584.13     32.00       0.0
  16866                JUNCTION            578.06     36.00       0.0    Yes
  168661               JUNCTION            574.33     35.23       0.0
  168662               JUNCTION            574.95     32.61       0.0
  168663               JUNCTION            575.57     36.39       0.0
  168664               JUNCTION            576.19     35.47       0.0
  168665               JUNCTION            576.80     36.36       0.0
  168666               JUNCTION            577.42     35.24       0.0
  16867                JUNCTION            587.91     38.25       0.0
  168680               JUNCTION            582.71     43.25       0.0
  168681               JUNCTION            584.42     42.54       0.0
  168683               JUNCTION            585.29     42.67       0.0
  16869                JUNCTION            586.36     27.70       0.0
  168690               JUNCTION            586.16     41.80       0.0
  168692               JUNCTION            584.13     29.93       0.0
  168693               JUNCTION            587.03     40.93       0.0
  16870                JUNCTION            573.81     12.35       0.0
  168704               JUNCTION            578.68     20.08       0.0
  168706               JUNCTION            579.62     20.14       0.0
  168708               JUNCTION            580.99     22.77       0.0
  16871                JUNCTION            575.76     24.00       0.0
  168714               JUNCTION            586.05     21.71       0.0
  168716               JUNCTION            587.96     21.80       0.0
  168718               JUNCTION            589.80     20.96       0.0
  16872                JUNCTION            574.81     24.95       0.0
  168720               JUNCTION            591.64     20.12       0.0
  16873                JUNCTION            575.76     24.00       0.0
  16874                JUNCTION            574.04     25.72       0.0
  16900                JUNCTION            574.89      9.47       0.0
  169004               JUNCTION            579.08     15.68       0.0
  169008               JUNCTION            582.33     21.43       0.0
  169012               JUNCTION            585.22     20.54       0.0    Yes
  169014               JUNCTION            586.70     19.06       0.0
  169016               JUNCTION            588.31     20.45       0.0
  169018               JUNCTION            589.67     20.09       0.0
  1693                 JUNCTION            563.39     22.37       0.0
  1705                 JUNCTION            544.40     38.36       0.0
  1715                 JUNCTION            552.13     27.83       0.0
  1720                 JUNCTION            553.28     28.38       0.0
  1730                 JUNCTION            556.11     24.15       0.0
  17312                JUNCTION            559.76     30.00       0.0
  17313                JUNCTION            559.56     30.20       0.0
  1733                 JUNCTION            556.61     26.05       0.0
  1735                 JUNCTION            557.06     20.40       0.0
  1750                 JUNCTION            558.99     18.47       0.0
  1755                 JUNCTION            559.44     17.82       0.0
  1760                 JUNCTION            579.76     15.00       0.0
  1767                 JUNCTION            569.76     22.00       0.0
  1768                 JUNCTION            569.66     33.10       0.0
  1772                 JUNCTION            547.56     39.20       0.0
[...]
  22160                      27.73     27.73     27.79      0.13         0.01
  22165                      27.68     27.68     27.73      0.24         0.01
  22170                      27.63     27.63     27.68      0.20         0.01
  22175                      27.55     27.55     27.63      0.13         0.01
  22180                      27.55     27.55     27.55      0.07         0.01
  22185                      27.52     27.52     27.55      0.03         0.01
  22186                      27.41     27.41     27.47      0.01         0.02
  22187                       0.01     27.33      0.01      0.01         0.01
  22195                      27.92     27.92     27.95      0.01         0.01
  22196                      27.49     27.49     27.51      4.02         0.04
  22197                       0.01     27.39      0.01      0.01         0.01
  22200                      27.85     27.85     27.92      0.26         0.01
  22205                      27.82     27.82     27.85      0.08         0.01
  22210                      27.76     27.76     27.82      0.01         0.01
  22215                      27.64     27.64     27.76      0.05         0.01
  22220                      27.64     27.66     27.64      0.05         0.16
  22221                      27.46     27.46     27.59      0.01         0.01
  22222                       0.01     26.95      0.01      0.01         0.01
  23000                      27.73     27.77     28.33     14.91        27.18
  23005                      28.37     28.38     28.39     13.80         2.21
  23005_2                    28.04     28.38     28.07     14.63         0.79
  23015                      28.32     28.34     28.38      0.04        13.66
  23016                       9.72      9.72     28.07      0.01         0.01
  23017                       0.01     16.76      0.01      0.01         0.01
  23025                      28.21     28.21     28.27      0.01         0.01
  23025_2                    28.27     28.28     28.34      0.08         2.09
  23040                      28.07     28.07     28.21      0.01         0.01
  23055                      28.02     28.02     28.07      0.01         0.01
  23060                      27.99     27.99     28.02      0.01         0.01
  23090                      27.88     27.88     27.99      0.01         0.01
  23091                      27.63     27.63     27.88      0.01         0.01
  23092                       0.01     27.60      0.01      0.01         0.01
  23095                      27.83     27.83     27.88      0.01         0.01
  23100                      27.56     27.56     27.82      0.01         0.01
  23115                      27.06     27.06     27.56      0.01         0.01
  23116                      26.71     26.71     27.06      0.01         0.01
  23117                       0.01     26.74      0.01      0.01         0.01
  23120                      27.06     27.07     27.07      0.01         4.81
  23120_2                    27.05     27.06     27.06      0.01         6.76
  23150                      26.86     26.86     27.31      0.01         0.02
  23155                      26.54     26.54     26.86      0.01         0.01
  23175                      26.43     26.43     26.54      0.01         0.01
  23180                      26.23     26.23     26.43      0.01         0.01
  23185                      26.08     26.08     26.23      0.01         0.01
  23190                      20.52     20.52     26.08      0.01         0.01
  23210                       0.01      0.01     20.53      0.01         0.01
  25000                      28.26     28.26     28.27      0.30         0.53
  25005                      28.05     28.05     28.07      0.23         0.42
  25010                      28.02     28.02     28.05      0.01         0.15
  25015                      28.00     28.00     28.02      0.01         0.08
  25020                      27.98     27.98     28.00      0.01         0.09
  25021                      27.96     27.96     27.98      0.01         0.01
  25022                       0.01     27.91      0.01      0.01         0.01
  25025                      27.94     27.94     27.98      0.01         0.02
  25030                      27.92     27.92     27.94      0.01         0.03
  25035                      27.89     27.89     27.92     11.85         6.57
  25040                      27.88     27.88     27.89     13.21         7.04
  25041                      27.58     27.58     27.73      0.01         0.01
  25045                      27.82     27.82     27.88      0.01         0.10
  25050                      27.78     27.78     27.82      0.01         0.01
  25055                      27.76     27.76     27.78      0.01         0.01
  25060                      27.61     27.61     27.76      0.01         0.01
  25065                      27.35     27.35     27.61      0.01         0.01
  25070                      27.35     27.35     42.57      0.01         0.01
  25080                      42.57     42.57     42.98      0.01         0.01
  25090                      42.98     42.98     43.02      0.62         0.01
  25100                      43.02     43.02     43.52      0.01         0.01
  25103                      28.01     28.01     28.26      0.01         0.01
  25104                       0.01     27.12      0.01      0.01         0.01
  25110                      43.52     43.52     43.56      0.01         0.01
  25120                      43.56     43.56     44.21      0.01         0.01
  25130                      44.21     44.21     44.67      0.01         0.01
  25133                      44.67     44.67     45.60      0.01         0.01
  25135                      45.61     45.61     46.60      0.01         0.01
  25500                      35.09     35.09     35.10      0.01         0.85
  25800                      35.08     35.08     35.09      0.11         0.97
  26000                      34.88     34.95     34.97      0.08         0.83
  26005                      34.89     34.94     34.95      0.33         2.61
  26006                       1.63      1.63     34.94      0.02         0.07
  26008                       0.01      0.02      0.01      0.01         0.01
  26010                      34.91     35.02     34.94      0.93         1.18
  26011                      32.78     32.78     35.02      0.74         1.00
  26012                       0.01      1.35      0.01      0.01         0.01
  26015                      28.91     28.96     35.02      0.84         0.78
  26020                      18.15     18.15     28.97      0.65         0.32
  26030                       8.67      8.67     18.17      0.19         0.03
  26040                       7.76      7.93      8.68      2.58         1.53
  26045                       6.62      6.63      7.95      1.01         0.47
  26050                       6.26      6.48      6.63      6.33         2.82
  26051                       5.95      6.00      6.48      0.07         0.26
  26052                       0.01      0.13      0.01      0.01         0.01
  26055                       6.39      6.65      6.48      3.85         3.09
  26060                       3.72      3.74      6.64      0.32         0.18
  26065                       3.61      3.64      3.75      0.89         0.45
  26070                       2.72      2.73      3.64      0.30         0.21
  26075                       2.56      2.59      2.73      0.90         0.54
  26080                       1.78      1.83      2.60      0.08         0.13
  26085                       1.33      1.35      1.83      0.01         0.08
  26090                       0.91      0.96      1.37      0.02         0.05
  26091                       0.81      0.81      0.96      0.01         0.06
  26092                       0.01      0.04      0.01      0.01         0.01
  26095                       0.73      0.76      0.96      0.01         0.05
  26096                       0.76      0.76     32.96     47.88         0.14
  26097                       0.01      0.13      0.01      0.01         0.01
  2728                        0.01      0.01     37.10      0.01         0.01
  27451                       0.01      0.01      6.44      0.01         0.01
  28191                       0.01      0.01     37.10      0.01         0.01
  29104                       0.88      0.88     26.99      0.01         0.01
  29910                       0.01      1.75      0.01      0.01         0.01
  29944                       0.01      0.01      0.01      0.71         0.01
  29960                       0.01      0.01      0.01      2.27         0.01
  50091                      28.05     28.05     29.29      0.01         0.01
  50092                       0.01      0.01     35.54      0.01         0.01
  5213                       31.57     31.57     31.96      0.01         0.01
  52141                       0.01      0.01     27.71      0.01         0.01
  58000                       0.01      0.01     48.00      0.01         0.01
  58001                       0.01      0.01     48.00      0.01         0.01
  6015                        0.01      0.01      0.01     10.92         0.01
  6055                        0.01      0.01      0.01      9.40         0.01
  6060                        0.01      0.01      0.01      8.56         0.01
  6062                        0.01      7.58      0.01     10.02         0.01
  6093                        0.01      0.01     31.14      0.01         0.01
  61001                       0.01      0.01      9.05      0.01         0.01
  6115                        9.52     45.33      9.52     46.06         9.52
  6120                        6.64      6.64      7.58      7.57         6.59
  6125                        5.83      5.83      6.64      6.60         5.27
  6130                        3.76      3.76      5.83      1.94         0.01
  6132                        0.01      0.01      0.01      2.61         0.01
  6134                        0.01      0.01      0.01     14.64         0.01
  6135                        4.08      6.20      4.20      6.70         3.97
  6140                        1.10      1.10      6.20      2.84         0.01
  6145                        1.10      1.49      1.10      6.35         1.10
  6150                        0.01      0.01      1.49      3.26         0.01
  6168                       12.00     12.00     47.96      0.01         0.01
  70031                       0.01      0.01     13.73      0.01         0.01
  7010                       10.57     10.61     23.22     10.30         0.04
  7015                        2.00      2.00     10.61     10.52         0.01
  7020                        1.46      1.46      2.00     10.68         0.01
  7025                        1.31      1.33      1.48     11.03         0.28
  7030                        0.01      0.01      1.33     10.75         0.01
  70311                       0.01      8.99      0.01     10.91         0.01
  70412                       0.01      0.01     39.65      0.01         0.01
  7043                        0.01      0.01      8.28      0.01         0.01
  70462                       0.01      0.01     37.55      0.01         0.01
  8010                       18.88     28.65     18.88     36.45        18.88
  8013                        0.01      0.01     13.40      0.01         0.01
  8100                       21.39     21.39     22.73     16.87        15.38
  8103                       21.39     27.10     21.39     30.19        21.39
  8200                        5.97     19.29      5.97     21.61         5.97
  82063                      24.77     24.77     37.00      0.01         0.01
  ISD001_underflow            9.53      9.53     10.68      0.01         0.01
  ISD002_underflow           10.00     20.62     10.00     38.08        10.00
  ISD005_underflow           41.02     41.02     47.23      0.01         0.01
  RC1131                      0.01      0.01      0.01      0.17         0.01
  RC1156                      0.01      6.19      0.01      5.78         0.01
  RC1171                      0.01      0.79      0.01      1.52         0.01
  RC31601                     0.18      0.42      0.18      1.11         0.18
  
  
  ***************
  Pumping Summary
  ***************
  
  ---------------------------------------------------------------------------------------------------------
                                                  Min       Avg       Max     Total     Power    % Time Off
                        Percent   Number of      Flow      Flow      Flow    Volume     Usage    Pump Curve
  Pump                 Utilized   Start-Ups       CFS       CFS       CFS  10^6 gal     Kw-hr    Low   High
  ---------------------------------------------------------------------------------------------------------
  CLINTONDALEPS           99.74           1      0.00     43.69     70.00    56.320   8947.78    0.0    0.0
  NEPS                    78.39         516      0.00    387.35    423.00   392.448  27060.76    0.0   67.8
  PUMP10@7041-7040       100.00           1      0.00     11.29     12.54    14.591    241.88    0.0   35.4
  PUMP11@7031-7030       100.00           1      0.00      8.36      9.30    10.809    642.12    0.0   24.1
  PUMP12@1795-3405       100.00           1      0.00     10.36     10.36    13.391    247.24    0.0    0.7
  PUMP13@1700-1695        51.39          52      0.00    162.06    290.50   107.643   7733.78    0.0    0.8
  PUMP14@1000-1767        88.75           7      0.00    284.37    316.00   326.214  28478.29    0.0   62.3
  PUMP15@1000-1767         0.00           0      0.00      0.00      0.00     0.000      0.00    0.0    0.0
  PUMP16@1000-1767         0.00           0      0.00      0.00      0.00     0.000      0.00    0.0    0.0
  PUMP17@1000-1767        39.84           1      0.00    137.04    142.29    70.576   5756.23    0.0   17.7
  PUMP18@1000-1767         0.00           0      0.00      0.00      0.00     0.000      0.00    0.0    0.0
  PUMP19@1000-1767        69.65          10      0.00    199.70    210.87   179.787  15268.93    0.0   52.9
  PUMP20@1000-1767        17.08           1      0.00    240.65    246.80    53.138   4238.23    0.0    5.4
  PUMP21@16003-20000      77.78           3      0.00    655.72    908.59   659.200  58048.77    0.0    6.4
  PUMP22@1798-3405        99.58           8      0.00      9.57     11.40    12.313    220.83    0.0    0.0
  PUMP23@1683-1684        51.82          16      0.00     10.06     15.20     6.736    311.39    0.0    2.0
  PUMP24@1782-1790       100.00           1      0.00     25.45     50.00    32.892    461.74    0.0   63.4
  PUMP25@3411-3410        20.19           2      0.00     47.70     50.00    12.450    631.23    0.0   20.6
  PUMP26@3409-3410       100.00           1      0.00      2.90     18.00     3.745     50.92    0.0   85.7
  PUMP31@2702-2711         0.00           0      0.00      0.00      0.00     0.000      0.00    0.0    0.0
  PUMP32@16447-1642        0.00           0      0.00      0.00      0.00     0.000      0.00    0.0    0.0
  PUMP33@5010-5005         0.00           0      0.00      0.00      0.00     0.000      0.00    0.0    0.0
  PUMP34@5010-5009        51.58        1448      0.00    268.09    577.89   178.732  26529.12    0.0  100.0
  PUMP35@5010-5009         0.00           0      0.00      0.00      0.00     0.000      0.00    0.0    0.0
  PUMP36@5010-5009         0.00           0      0.00      0.00      0.00     0.000      0.00    0.0    0.0
  PUMP37@5010-5009         0.00           0      0.00      0.00      0.00     0.000      0.00    0.0    0.0
  PUMP38@2999-5007         0.00           0      0.00      0.00      0.00     0.000      0.00    0.0    0.0
  PUMP39@2999-5007         0.00           0      0.00      0.00      0.00     0.000      0.00    0.0    0.0
  PUMP40@2999-5007         0.00           0      0.00      0.00      0.00     0.000      0.00    0.0    0.0
  PUMP41@2999-5007         0.00           0      0.00      0.00      0.00     0.000      0.00    0.0    0.0
  PUMP42@5220-5106         0.00           0      0.00      0.00      0.00     0.000      0.00    0.0    0.0
  PUMP43@5220-5106         0.00           0      0.00      0.00      0.00     0.000      0.00    0.0    0.0
  PUMP44@5220-5219        32.43        1287      0.00     73.29    364.81    30.720   7918.61    0.0  100.0
  PUMP45@5220-5218         0.00           0      0.00      0.00      0.00     0.000      0.00    0.0    0.0
  PUMP46@5220-5217         0.00           0      0.00      0.00      0.00     0.000      0.00    0.0    0.0
  PUMP47@5220-5216         0.00           0      0.00      0.00      0.00     0.000      0.00    0.0    0.0
  PUMP48@5729-5730        81.68           1      0.00     22.80     54.57    24.074   2685.47    0.0    0.0
  PUMP49@70333-7030       24.57         102      0.00     13.73     14.70     4.358    191.99    0.0    0.0
  PUMP50@7011-7010        96.58           1      0.00      1.27      3.00     1.585    112.64    0.0    0.0
  PUMP51@7004-7000        70.09           1      0.00      6.27      9.14     5.681    360.64    0.0    0.0
  PUMP52@7005-7000        89.90           1      0.00     49.50     63.50    57.520   2791.01    0.0    0.1
  PUMP53@7005-7000        21.56           4      0.00     42.29     60.41    11.787    614.93    0.0    0.0
  PUMP54@5879-5878        27.47           5      0.00      9.54     10.26     3.387    309.90    0.0    0.0
  PUMP55@5879-5878         0.00           0      0.00      0.00      0.00     0.000      0.00    0.0    0.0
  PUMP56@1759-1760        92.27           1      0.00      8.07     23.42     9.626    182.81    0.0   13.9
  PUMP59@7035-7030         0.00           0      0.00      0.00      0.00     0.000      0.00    0.0    0.0
  PUMP60@7041-70411        0.00           0      0.00      0.00      0.00     0.000      0.00    0.0    0.0
  PUMP65@6095-6090        99.36           1      0.00     19.60     19.60    25.171   3335.26    0.0  100.0
  PUMP66@6095-6090         0.00           0      0.00      0.00      0.00     0.000      0.00    0.0    0.0
  PUMP67@6095-6090        78.52          50      0.00     25.31     25.93    25.689   3393.00    0.0    0.0
  PUMP68@6095-6093        10.24          93      0.00     29.72     35.70     3.935    741.79    0.0    4.4
  PUMP69@6095-6093         0.00           0      0.00      0.00      0.00     0.000      0.00    0.0    0.0
  PUMP70@6167-6165       100.00           1      0.00      2.99      5.00     3.860      3.51    0.0   72.0
  PUMP71@6166-6165       100.00           1      0.00      3.43      4.90     4.437      4.35    0.0   58.8
  PUMP72@6156-6155       100.00           1      0.00      1.79      3.00     2.320      4.14    0.0   73.3
  PUMP73@61672-6165        1.34          77      0.00     16.00     16.00     0.276      0.75    0.0    0.0
  PUMP74@61662-6165        3.56         205      0.00     16.00     16.00     0.736      1.61    0.0    0.0
  PUMP75@61562-6155        1.58          91      0.00     12.00     12.00     0.245      0.33    0.0    0.0
  PUMP76@6136-6135       100.00           1      0.00      2.64      2.98     3.412     22.39    0.0   47.2
  PUMP77@61361-6135       14.64         707      0.00      5.41      5.41     1.023     17.71    0.0    0.0
  PUMP80@82062-8010       65.17        1484      0.00      9.94     24.21     8.374    387.52    0.0    0.0
  PUMP81@11600-11601      18.44           1      0.00      9.35     10.60     2.229    216.23    0.0    0.0
  PUMP82@11600-11601       0.00           0      0.00      0.00      0.00     0.000      0.00    0.0    0.0
  PUMP83@11600-11601       0.00           0      0.00      0.00      0.00     0.000      0.00    0.0    0.0
  PUMP9@7046-7045        100.00           1      0.00     16.44     19.74    21.243    123.80    0.0   59.8
  

  Analysis begun on:  Mon Jun 04 15:48:46 2018
  Analysis ended on:  Mon Jun 04 15:52:06 2018
  Total elapsed time: 00:03:20